# DDEC6 charges by PACMAN v1.1 (https://github.com/mtap-research/PACMAN-charge/)
data_c8dt00908b2_FSR_pacman
_symmetry_space_group_name_H-M   'P 1'
_cell_length_a   7.38130000
_cell_length_b   18.81000000
_cell_length_c   23.84600000
_cell_angle_alpha   90.00000000
_cell_angle_beta   90.00000000
_cell_angle_gamma   90.00000000
_symmetry_Int_Tables_number   1
_chemical_formula_structural   NaZn2H24C27O14
_chemical_formula_sum   'Na4 Zn8 H96 C108 O56'
_cell_volume   3310.83236504
_cell_formula_units_Z   4
loop_
 _symmetry_equiv_pos_site_id
 _symmetry_equiv_pos_as_xyz
  1  'x, y, z'
loop_
 _atom_site_type_symbol
 _atom_site_label
 _atom_site_symmetry_multiplicity
 _atom_site_fract_x
 _atom_site_fract_y
 _atom_site_fract_z
 _atom_site_occupancy
 _atom_site_charge
Na  Na1  1  0.00000000  0.50000000  0.50000000  1.0 0.8622228707
Na  Na2  1  0.50000000  0.00000000  0.50000000  1.0 0.8622228707
Na  Na3  1  0.00000000  0.50000000  0.00000000  1.0 0.8622228707
Na  Na4  1  0.50000000  0.00000000  0.00000000  1.0 0.8622228707
Zn  Zn1  1  0.16393000  0.04360000  0.58661000  1.0 0.8672451655
Zn  Zn2  1  0.33607000  0.54360000  0.41339000  1.0 0.8672451655
Zn  Zn3  1  0.83607000  0.95640000  0.08661000  1.0 0.8672451655
Zn  Zn4  1  0.66393000  0.45640000  0.91339000  1.0 0.8672451655
Zn  Zn5  1  0.83607000  0.95640000  0.41339000  1.0 0.8672451655
Zn  Zn6  1  0.66393000  0.45640000  0.58661000  1.0 0.8672451655
Zn  Zn7  1  0.16393000  0.04360000  0.91339000  1.0 0.8672451655
Zn  Zn8  1  0.33607000  0.54360000  0.08661000  1.0 0.8672451655
H  H1  1  0.24660000  0.80050000  0.48400000  1.0 0.116241848
H  H2  1  0.11730000  0.62870000  0.57500000  1.0 0.1296379952
H  H3  1  0.03400000  0.82380000  0.63740000  1.0 0.1296379952
H  H4  1  0.94010000  0.64500000  0.66230000  1.0 0.1386688332
H  H5  1  0.09880000  0.68230000  0.69460000  1.0 0.1386688332
H  H6  1  0.91350000  0.72170000  0.68670000  1.0 0.1296379952
H  H7  1  0.80190000  0.96040000  0.66620000  1.0 0.1296379952
H  H8  1  0.31520000  0.66370000  0.40130000  1.0 0.3342525716
H  H9  1  0.83570000  0.05010000  0.59730000  1.0 0.3819838594
H  H10  1  0.89710000  0.11290000  0.62550000  1.0 0.3707790653
H  H11  1  0.25340000  0.30050000  0.51600000  1.0 0.116241848
H  H12  1  0.38270000  0.12870000  0.42500000  1.0 0.1296379952
H  H13  1  0.46600000  0.32380000  0.36260000  1.0 0.1296379952
H  H14  1  0.55990000  0.14500000  0.33770000  1.0 0.1386688332
H  H15  1  0.40120000  0.18230000  0.30540000  1.0 0.1386688332
H  H16  1  0.58650000  0.22170000  0.31330000  1.0 0.1296379952
H  H17  1  0.69810000  0.46040000  0.33380000  1.0 0.1296379952
H  H18  1  0.18480000  0.16370000  0.59870000  1.0 0.3342525716
H  H19  1  0.66430000  0.55010000  0.40270000  1.0 0.3819838594
H  H20  1  0.60290000  0.61290000  0.37450000  1.0 0.3707790653
H  H21  1  0.75340000  0.19950000  0.98400000  1.0 0.116241848
H  H22  1  0.88270000  0.37130000  0.07500000  1.0 0.1296379952
H  H23  1  0.96600000  0.17620000  0.13740000  1.0 0.1296379952
H  H24  1  0.05990000  0.35500000  0.16230000  1.0 0.1386688332
H  H25  1  0.90120000  0.31770000  0.19460000  1.0 0.1386688332
H  H26  1  0.08650000  0.27830000  0.18670000  1.0 0.1296379952
H  H27  1  0.19810000  0.03960000  0.16620000  1.0 0.1296379952
H  H28  1  0.68480000  0.33630000  0.90130000  1.0 0.3342525716
H  H29  1  0.16430000  0.94990000  0.09730000  1.0 0.3819838594
H  H30  1  0.10290000  0.88710000  0.12550000  1.0 0.3707790653
H  H31  1  0.74660000  0.69950000  0.01600000  1.0 0.116241848
H  H32  1  0.61730000  0.87130000  0.92500000  1.0 0.1296379952
H  H33  1  0.53400000  0.67620000  0.86260000  1.0 0.1296379952
H  H34  1  0.44010000  0.85500000  0.83770000  1.0 0.1386688332
H  H35  1  0.59880000  0.81770000  0.80540000  1.0 0.1386688332
H  H36  1  0.41350000  0.77830000  0.81330000  1.0 0.1296379952
H  H37  1  0.30190000  0.53960000  0.83380000  1.0 0.1296379952
H  H38  1  0.81520000  0.83630000  0.09870000  1.0 0.3342525716
H  H39  1  0.33570000  0.44990000  0.90270000  1.0 0.3819838594
H  H40  1  0.39710000  0.38710000  0.87450000  1.0 0.3707790653
H  H41  1  0.75340000  0.19950000  0.51600000  1.0 0.116241848
H  H42  1  0.88270000  0.37130000  0.42500000  1.0 0.1296379952
H  H43  1  0.96600000  0.17620000  0.36260000  1.0 0.1296379952
H  H44  1  0.05990000  0.35500000  0.33770000  1.0 0.1386688332
H  H45  1  0.90120000  0.31770000  0.30540000  1.0 0.1386688332
H  H46  1  0.08650000  0.27830000  0.31330000  1.0 0.1296379952
H  H47  1  0.19810000  0.03960000  0.33380000  1.0 0.1296379952
H  H48  1  0.68480000  0.33630000  0.59870000  1.0 0.3342525716
H  H49  1  0.16430000  0.94990000  0.40270000  1.0 0.3819838594
H  H50  1  0.10290000  0.88710000  0.37450000  1.0 0.3707790653
H  H51  1  0.74660000  0.69950000  0.48400000  1.0 0.116241848
H  H52  1  0.61730000  0.87130000  0.57500000  1.0 0.1296379952
H  H53  1  0.53400000  0.67620000  0.63740000  1.0 0.1296379952
H  H54  1  0.44010000  0.85500000  0.66230000  1.0 0.1386688332
H  H55  1  0.59880000  0.81770000  0.69460000  1.0 0.1386688332
H  H56  1  0.41350000  0.77830000  0.68670000  1.0 0.1296379952
H  H57  1  0.30190000  0.53960000  0.66620000  1.0 0.1296379952
H  H58  1  0.81520000  0.83630000  0.40130000  1.0 0.3342525716
H  H59  1  0.33570000  0.44990000  0.59730000  1.0 0.3819838594
H  H60  1  0.39710000  0.38710000  0.62550000  1.0 0.3707790653
H  H61  1  0.24660000  0.80050000  0.01600000  1.0 0.116241848
H  H62  1  0.11730000  0.62870000  0.92500000  1.0 0.1296379952
H  H63  1  0.03400000  0.82380000  0.86260000  1.0 0.1296379952
H  H64  1  0.94010000  0.64500000  0.83770000  1.0 0.1386688332
H  H65  1  0.09880000  0.68230000  0.80540000  1.0 0.1386688332
H  H66  1  0.91350000  0.72170000  0.81330000  1.0 0.1296379952
H  H67  1  0.80190000  0.96040000  0.83380000  1.0 0.1296379952
H  H68  1  0.31520000  0.66370000  0.09870000  1.0 0.3342525716
H  H69  1  0.83570000  0.05010000  0.90270000  1.0 0.3819838594
H  H70  1  0.89710000  0.11290000  0.87450000  1.0 0.3707790653
H  H71  1  0.25340000  0.30050000  0.98400000  1.0 0.116241848
H  H72  1  0.38270000  0.12870000  0.07500000  1.0 0.1296379952
H  H73  1  0.46600000  0.32380000  0.13740000  1.0 0.1296379952
H  H74  1  0.55990000  0.14500000  0.16230000  1.0 0.1386688332
H  H75  1  0.40120000  0.18230000  0.19460000  1.0 0.1386688332
H  H76  1  0.58650000  0.22170000  0.18670000  1.0 0.1296379952
H  H77  1  0.69810000  0.46040000  0.16620000  1.0 0.1296379952
H  H78  1  0.18480000  0.16370000  0.90130000  1.0 0.3342525716
H  H79  1  0.66430000  0.55010000  0.09730000  1.0 0.3819838594
H  H80  1  0.60290000  0.61290000  0.12550000  1.0 0.3707790653
H  H81  1  0.38770000  0.04870000  0.75000000  1.0 0.1296379952
H  H82  1  0.11230000  0.54870000  0.25000000  1.0 0.1296379952
H  H83  1  0.61230000  0.95130000  0.25000000  1.0 0.1296379952
H  H84  1  0.88770000  0.45130000  0.75000000  1.0 0.1296379952
H  H85  1  0.00530000  0.87280000  0.73600000  0.5 0.0600036953
H  H86  1  0.09880000  0.94660000  0.72650000  0.5 0.0600036953
H  H87  1  0.06390000  0.91910000  0.78760000  0.5 0.0600036953
H  H88  1  0.49470000  0.37280000  0.26400000  0.5 0.0600036953
H  H89  1  0.40120000  0.44660000  0.27350000  0.5 0.0600036953
H  H90  1  0.43610000  0.41910000  0.21240000  0.5 0.0600036953
H  H91  1  0.99470000  0.12720000  0.23600000  0.5 0.0600036953
H  H92  1  0.90120000  0.05340000  0.22650000  0.5 0.0600036953
H  H93  1  0.93610000  0.08090000  0.28760000  0.5 0.0600036953
H  H94  1  0.50530000  0.62720000  0.76400000  0.5 0.0600036953
H  H95  1  0.59880000  0.55340000  0.77350000  0.5 0.0600036953
H  H96  1  0.56390000  0.58090000  0.71240000  0.5 0.0600036953
H  H97  1  0.99470000  0.12720000  0.26400000  0.5 0.0600036953
H  H98  1  0.90120000  0.05340000  0.27350000  0.5 0.0600036953
H  H99  1  0.93610000  0.08090000  0.21240000  0.5 0.0600036953
H  H100  1  0.50530000  0.62720000  0.73600000  0.5 0.0600036953
H  H101  1  0.59880000  0.55340000  0.72650000  0.5 0.0600036953
H  H102  1  0.56390000  0.58090000  0.78760000  0.5 0.0600036953
H  H103  1  0.00530000  0.87280000  0.76400000  0.5 0.0600036953
H  H104  1  0.09880000  0.94660000  0.77350000  0.5 0.0600036953
H  H105  1  0.06390000  0.91910000  0.71240000  0.5 0.0600036953
H  H106  1  0.49470000  0.37280000  0.23600000  0.5 0.0600036953
H  H107  1  0.40120000  0.44660000  0.22650000  0.5 0.0600036953
H  H108  1  0.43610000  0.41910000  0.28760000  0.5 0.0600036953
C  C1  1  0.17080000  0.90355000  0.55499000  1.0 0.5674939694
C  C2  1  0.14530000  0.82465000  0.56031000  1.0 -0.0202712251
C  C3  1  0.20060000  0.78069000  0.51680000  1.0 -0.142461205
C  C4  1  0.18750000  0.70734000  0.52190000  1.0 -0.0496434673
C  C5  1  0.12280000  0.67784000  0.57131000  1.0 -0.1542988421
C  C6  1  0.06610000  0.72097000  0.61542000  1.0 0.1599098722
C  C7  1  0.07540000  0.79443000  0.60880000  1.0 -0.1542988421
C  C8  1  0.24530000  0.66196000  0.47357000  1.0 0.5778963621
C  C9  1  0.99850000  0.68966000  0.66968000  1.0 -0.4717542996
C  C10  1  0.48410000  0.02266000  0.64512000  1.0 0.5674939694
C  C11  1  0.57910000  0.00703000  0.69957000  1.0 -0.0405548649
C  C12  1  0.74720000  0.97255000  0.70000000  1.0 -0.1917203573
C  C13  1  0.32920000  0.40355000  0.44501000  1.0 0.5674939694
C  C14  1  0.35470000  0.32465000  0.43969000  1.0 -0.0202712251
C  C15  1  0.29940000  0.28069000  0.48320000  1.0 -0.142461205
C  C16  1  0.31250000  0.20734000  0.47810000  1.0 -0.0496434673
C  C17  1  0.37720000  0.17784000  0.42869000  1.0 -0.1542988421
C  C18  1  0.43390000  0.22097000  0.38458000  1.0 0.1599098722
C  C19  1  0.42460000  0.29443000  0.39120000  1.0 -0.1542988421
C  C20  1  0.25470000  0.16196000  0.52643000  1.0 0.5778963621
C  C21  1  0.50150000  0.18966000  0.33032000  1.0 -0.4717542996
C  C22  1  0.01590000  0.52266000  0.35488000  1.0 0.5674939694
C  C23  1  0.92090000  0.50703000  0.30043000  1.0 -0.0405548649
C  C24  1  0.75280000  0.47255000  0.30000000  1.0 -0.1917203573
C  C25  1  0.82920000  0.09645000  0.05499000  1.0 0.5674939694
C  C26  1  0.85470000  0.17535000  0.06031000  1.0 -0.0202712251
C  C27  1  0.79940000  0.21931000  0.01680000  1.0 -0.142461205
C  C28  1  0.81250000  0.29266000  0.02190000  1.0 -0.0496434673
C  C29  1  0.87720000  0.32216000  0.07131000  1.0 -0.1542988421
C  C30  1  0.93390000  0.27903000  0.11542000  1.0 0.1599098722
C  C31  1  0.92460000  0.20557000  0.10880000  1.0 -0.1542988421
C  C32  1  0.75470000  0.33804000  0.97357000  1.0 0.5778963621
C  C33  1  0.00150000  0.31034000  0.16968000  1.0 -0.4717542996
C  C34  1  0.51590000  0.97734000  0.14512000  1.0 0.5674939694
C  C35  1  0.42090000  0.99297000  0.19957000  1.0 -0.0405548649
C  C36  1  0.25280000  0.02745000  0.20000000  1.0 -0.1917203573
C  C37  1  0.67080000  0.59645000  0.94501000  1.0 0.5674939694
C  C38  1  0.64530000  0.67535000  0.93969000  1.0 -0.0202712251
C  C39  1  0.70060000  0.71931000  0.98320000  1.0 -0.142461205
C  C40  1  0.68750000  0.79266000  0.97810000  1.0 -0.0496434673
C  C41  1  0.62280000  0.82216000  0.92869000  1.0 -0.1542988421
C  C42  1  0.56610000  0.77903000  0.88458000  1.0 0.1599098722
C  C43  1  0.57540000  0.70557000  0.89120000  1.0 -0.1542988421
C  C44  1  0.74530000  0.83804000  0.02643000  1.0 0.5778963621
C  C45  1  0.49850000  0.81034000  0.83032000  1.0 -0.4717542996
C  C46  1  0.98410000  0.47734000  0.85488000  1.0 0.5674939694
C  C47  1  0.07910000  0.49297000  0.80043000  1.0 -0.0405548649
C  C48  1  0.24720000  0.52745000  0.80000000  1.0 -0.1917203573
C  C49  1  0.82920000  0.09645000  0.44501000  1.0 0.5674939694
C  C50  1  0.85470000  0.17535000  0.43969000  1.0 -0.0202712251
C  C51  1  0.79940000  0.21931000  0.48320000  1.0 -0.142461205
C  C52  1  0.81250000  0.29266000  0.47810000  1.0 -0.0496434673
C  C53  1  0.87720000  0.32216000  0.42869000  1.0 -0.1542988421
C  C54  1  0.93390000  0.27903000  0.38458000  1.0 0.1599098722
C  C55  1  0.92460000  0.20557000  0.39120000  1.0 -0.1542988421
C  C56  1  0.75470000  0.33804000  0.52643000  1.0 0.5778963621
C  C57  1  0.00150000  0.31034000  0.33032000  1.0 -0.4717542996
C  C58  1  0.51590000  0.97734000  0.35488000  1.0 0.5674939694
C  C59  1  0.42090000  0.99297000  0.30043000  1.0 -0.0405548649
C  C60  1  0.25280000  0.02745000  0.30000000  1.0 -0.1917203573
C  C61  1  0.67080000  0.59645000  0.55499000  1.0 0.5674939694
C  C62  1  0.64530000  0.67535000  0.56031000  1.0 -0.0202712251
C  C63  1  0.70060000  0.71931000  0.51680000  1.0 -0.142461205
C  C64  1  0.68750000  0.79266000  0.52190000  1.0 -0.0496434673
C  C65  1  0.62280000  0.82216000  0.57131000  1.0 -0.1542988421
C  C66  1  0.56610000  0.77903000  0.61542000  1.0 0.1599098722
C  C67  1  0.57540000  0.70557000  0.60880000  1.0 -0.1542988421
C  C68  1  0.74530000  0.83804000  0.47357000  1.0 0.5778963621
C  C69  1  0.49850000  0.81034000  0.66968000  1.0 -0.4717542996
C  C70  1  0.98410000  0.47734000  0.64512000  1.0 0.5674939694
C  C71  1  0.07910000  0.49297000  0.69957000  1.0 -0.0405548649
C  C72  1  0.24720000  0.52745000  0.70000000  1.0 -0.1917203573
C  C73  1  0.17080000  0.90355000  0.94501000  1.0 0.5674939694
C  C74  1  0.14530000  0.82465000  0.93969000  1.0 -0.0202712251
C  C75  1  0.20060000  0.78069000  0.98320000  1.0 -0.142461205
C  C76  1  0.18750000  0.70734000  0.97810000  1.0 -0.0496434673
C  C77  1  0.12280000  0.67784000  0.92869000  1.0 -0.1542988421
C  C78  1  0.06610000  0.72097000  0.88458000  1.0 0.1599098722
C  C79  1  0.07540000  0.79443000  0.89120000  1.0 -0.1542988421
C  C80  1  0.24530000  0.66196000  0.02643000  1.0 0.5778963621
C  C81  1  0.99850000  0.68966000  0.83032000  1.0 -0.4717542996
C  C82  1  0.48410000  0.02266000  0.85488000  1.0 0.5674939694
C  C83  1  0.57910000  0.00703000  0.80043000  1.0 -0.0405548649
C  C84  1  0.74720000  0.97255000  0.80000000  1.0 -0.1917203573
C  C85  1  0.32920000  0.40355000  0.05499000  1.0 0.5674939694
C  C86  1  0.35470000  0.32465000  0.06031000  1.0 -0.0202712251
C  C87  1  0.29940000  0.28069000  0.01680000  1.0 -0.142461205
C  C88  1  0.31250000  0.20734000  0.02190000  1.0 -0.0496434673
C  C89  1  0.37720000  0.17784000  0.07131000  1.0 -0.1542988421
C  C90  1  0.43390000  0.22097000  0.11542000  1.0 0.1599098722
C  C91  1  0.42460000  0.29443000  0.10880000  1.0 -0.1542988421
C  C92  1  0.25470000  0.16196000  0.97357000  1.0 0.5778963621
C  C93  1  0.50150000  0.18966000  0.16968000  1.0 -0.4717542996
C  C94  1  0.01590000  0.52266000  0.14512000  1.0 0.5674939694
C  C95  1  0.92090000  0.50703000  0.19957000  1.0 -0.0405548649
C  C96  1  0.75280000  0.47255000  0.20000000  1.0 -0.1917203573
C  C97  1  0.83300000  0.95640000  0.75000000  1.0 0.0469752623
C  C98  1  0.49790000  0.02471000  0.75000000  1.0 -0.1082728711
C  C99  1  0.01720000  0.92040000  0.75000000  1.0 -0.2831962352
C  C100  1  0.66700000  0.45640000  0.25000000  1.0 0.0469752623
C  C101  1  0.00210000  0.52471000  0.25000000  1.0 -0.1082728711
C  C102  1  0.48280000  0.42040000  0.25000000  1.0 -0.2831962352
C  C103  1  0.16700000  0.04360000  0.25000000  1.0 0.0469752623
C  C104  1  0.50210000  0.97529000  0.25000000  1.0 -0.1082728711
C  C105  1  0.98280000  0.07960000  0.25000000  1.0 -0.2831962352
C  C106  1  0.33300000  0.54360000  0.75000000  1.0 0.0469752623
C  C107  1  0.99790000  0.47529000  0.75000000  1.0 -0.1082728711
C  C108  1  0.51720000  0.57960000  0.75000000  1.0 -0.2831962352
O  O1  1  0.11400000  0.94172000  0.59518000  1.0 -0.564599136
O  O2  1  0.24730000  0.92812000  0.51308000  1.0 -0.6111820285
O  O3  1  0.23740000  0.59417000  0.48006000  1.0 -0.5993307662
O  O4  1  0.29830000  0.69035000  0.42968000  1.0 -0.3946790044
O  O5  1  0.54850000  0.00165000  0.60041000  1.0 -0.5993307662
O  O6  1  0.33620000  0.05822000  0.64920000  1.0 -0.5944899936
O  O7  1  0.91280000  0.08360000  0.59877000  1.0 -0.6536104177
O  O8  1  0.38600000  0.44172000  0.40482000  1.0 -0.564599136
O  O9  1  0.25270000  0.42812000  0.48692000  1.0 -0.6111820285
O  O10  1  0.26260000  0.09417000  0.51994000  1.0 -0.5993307662
O  O11  1  0.20170000  0.19035000  0.57032000  1.0 -0.3959904258
O  O12  1  0.95150000  0.50165000  0.39959000  1.0 -0.5993307662
O  O13  1  0.16380000  0.55822000  0.35080000  1.0 -0.5944899936
O  O14  1  0.58720000  0.58360000  0.40123000  1.0 -0.6536104177
O  O15  1  0.88600000  0.05828000  0.09518000  1.0 -0.564599136
O  O16  1  0.75270000  0.07188000  0.01308000  1.0 -0.6111820285
O  O17  1  0.76260000  0.40583000  0.98006000  1.0 -0.5993307662
O  O18  1  0.70170000  0.30965000  0.92968000  1.0 -0.3946790044
O  O19  1  0.45150000  0.99835000  0.10041000  1.0 -0.5993307662
O  O20  1  0.66380000  0.94178000  0.14920000  1.0 -0.5944899936
O  O21  1  0.08720000  0.91640000  0.09877000  1.0 -0.6536104177
O  O22  1  0.61400000  0.55828000  0.90482000  1.0 -0.564599136
O  O23  1  0.74730000  0.57188000  0.98692000  1.0 -0.6111820285
O  O24  1  0.73740000  0.90583000  0.01994000  1.0 -0.5993307662
O  O25  1  0.79830000  0.80965000  0.07032000  1.0 -0.3959904258
O  O26  1  0.04850000  0.49835000  0.89959000  1.0 -0.5993307662
O  O27  1  0.83620000  0.44178000  0.85080000  1.0 -0.5944899936
O  O28  1  0.41280000  0.41640000  0.90123000  1.0 -0.6536104177
O  O29  1  0.88600000  0.05828000  0.40482000  1.0 -0.564599136
O  O30  1  0.75270000  0.07188000  0.48692000  1.0 -0.6111820285
O  O31  1  0.76260000  0.40583000  0.51994000  1.0 -0.5993307662
O  O32  1  0.70170000  0.30965000  0.57032000  1.0 -0.3946790044
O  O33  1  0.45150000  0.99835000  0.39959000  1.0 -0.5993307662
O  O34  1  0.66380000  0.94178000  0.35080000  1.0 -0.5944899936
O  O35  1  0.08720000  0.91640000  0.40123000  1.0 -0.6536104177
O  O36  1  0.61400000  0.55828000  0.59518000  1.0 -0.564599136
O  O37  1  0.74730000  0.57188000  0.51308000  1.0 -0.6111820285
O  O38  1  0.73740000  0.90583000  0.48006000  1.0 -0.5993307662
O  O39  1  0.79830000  0.80965000  0.42968000  1.0 -0.3959904258
O  O40  1  0.04850000  0.49835000  0.60041000  1.0 -0.5993307662
O  O41  1  0.83620000  0.44178000  0.64920000  1.0 -0.5944899936
O  O42  1  0.41280000  0.41640000  0.59877000  1.0 -0.6536104177
O  O43  1  0.11400000  0.94172000  0.90482000  1.0 -0.564599136
O  O44  1  0.24730000  0.92812000  0.98692000  1.0 -0.6111820285
O  O45  1  0.23740000  0.59417000  0.01994000  1.0 -0.5993307662
O  O46  1  0.29830000  0.69035000  0.07032000  1.0 -0.3946790044
O  O47  1  0.54850000  0.00165000  0.89959000  1.0 -0.5993307662
O  O48  1  0.33620000  0.05822000  0.85080000  1.0 -0.5944899936
O  O49  1  0.91280000  0.08360000  0.90123000  1.0 -0.6536104177
O  O50  1  0.38600000  0.44172000  0.09518000  1.0 -0.564599136
O  O51  1  0.25270000  0.42812000  0.01308000  1.0 -0.6111820285
O  O52  1  0.26260000  0.09417000  0.98006000  1.0 -0.5993307662
O  O53  1  0.20170000  0.19035000  0.92968000  1.0 -0.3959904258
O  O54  1  0.95150000  0.50165000  0.10041000  1.0 -0.5993307662
O  O55  1  0.16380000  0.55822000  0.14920000  1.0 -0.5944899936
O  O56  1  0.58720000  0.58360000  0.09877000  1.0 -0.6536104177
