# DDEC6 charges by PACMAN v1.1 (https://github.com/mtap-research/PACMAN-charge/)
data_ja8b13853_si_003_ASR_pacman
_symmetry_space_group_name_H-M   'P 1'
_cell_length_a   11.43190000
_cell_length_b   15.73280000
_cell_length_c   18.33080000
_cell_angle_alpha   90.00000000
_cell_angle_beta   90.00000000
_cell_angle_gamma   90.00000000
_symmetry_Int_Tables_number   1
_chemical_formula_structural   ZnH14C25BrNO4
_chemical_formula_sum   'Zn2 H28 C50 Br2 N2 O8'
_cell_volume   3296.90063118
_cell_formula_units_Z   2
loop_
 _symmetry_equiv_pos_site_id
 _symmetry_equiv_pos_as_xyz
  1  'x, y, z'
loop_
 _atom_site_type_symbol
 _atom_site_label
 _atom_site_symmetry_multiplicity
 _atom_site_fract_x
 _atom_site_fract_y
 _atom_site_fract_z
 _atom_site_occupancy
 _atom_site_charge
Zn  Zn1  1  0.50000000  0.50000000  0.08043000  1.0 0.7554118507
Zn  Zn2  1  0.50000000  0.50000000  0.91957000  1.0 0.7554118507
H  H1  1  0.24809000  0.29493000  0.10841000  1.0 0.1243200772
H  H2  1  0.13663000  0.17344000  0.10779000  1.0 0.1137253124
H  H3  1  0.75191000  0.70507000  0.10841000  1.0 0.1243200772
H  H4  1  0.86337000  0.82656000  0.10779000  1.0 0.1137253124
H  H5  1  0.75191000  0.29493000  0.89159000  1.0 0.1243200772
H  H6  1  0.86337000  0.17344000  0.89221000  1.0 0.1137253124
H  H7  1  0.24809000  0.70507000  0.89159000  1.0 0.1243200772
H  H8  1  0.13663000  0.82656000  0.89221000  1.0 0.1137253124
H  H9  1  0.75191000  0.70507000  0.89159000  1.0 0.1243200772
H  H10  1  0.86337000  0.82656000  0.89221000  1.0 0.1137253124
H  H11  1  0.24809000  0.29493000  0.89159000  1.0 0.1243200772
H  H12  1  0.13663000  0.17344000  0.89221000  1.0 0.1137253124
H  H13  1  0.24809000  0.70507000  0.10841000  1.0 0.1243200772
H  H14  1  0.13663000  0.82656000  0.10779000  1.0 0.1137253124
H  H15  1  0.75191000  0.29493000  0.10841000  1.0 0.1243200772
H  H16  1  0.86337000  0.17344000  0.10779000  1.0 0.1137253124
H  H17  1  0.40304000  0.39792000  0.20321000  0.19 0.0581626703
H  H18  1  0.39928000  0.39382000  0.32988000  0.19 0.0460048192
H  H19  1  0.59696000  0.60208000  0.20321000  0.19 0.0581626703
H  H20  1  0.60072000  0.60618000  0.32988000  0.19 0.0460048192
H  H21  1  0.59696000  0.39792000  0.79679000  0.19 0.0581626703
H  H22  1  0.60072000  0.39382000  0.67012000  0.19 0.0460048192
H  H23  1  0.40304000  0.60208000  0.79679000  0.19 0.0581626703
H  H24  1  0.39928000  0.60618000  0.67012000  0.19 0.0460048192
H  H25  1  0.59696000  0.60208000  0.79679000  0.19 0.0581626703
H  H26  1  0.60072000  0.60618000  0.67012000  0.19 0.0460048192
H  H27  1  0.40304000  0.39792000  0.79679000  0.19 0.0581626703
H  H28  1  0.39928000  0.39382000  0.67012000  0.19 0.0460048192
H  H29  1  0.40304000  0.60208000  0.20321000  0.19 0.0581626703
H  H30  1  0.39928000  0.60618000  0.32988000  0.19 0.0460048192
H  H31  1  0.59696000  0.39792000  0.20321000  0.19 0.0581626703
H  H32  1  0.60072000  0.39382000  0.32988000  0.19 0.0460048192
H  H33  1  0.43072000  0.37983000  0.43477000  0.25 0.0659094699
H  H34  1  0.33645000  0.44693000  0.43479000  0.25 0.0659094699
H  H35  1  0.56928000  0.62017000  0.43477000  0.25 0.0659094699
H  H36  1  0.66355000  0.55307000  0.43479000  0.25 0.0659094699
H  H37  1  0.56928000  0.37983000  0.56523000  0.25 0.0659094699
H  H38  1  0.66355000  0.44693000  0.56521000  0.25 0.0659094699
H  H39  1  0.43072000  0.62017000  0.56523000  0.25 0.0659094699
H  H40  1  0.33645000  0.55307000  0.56521000  0.25 0.0659094699
H  H41  1  0.56928000  0.62017000  0.56523000  0.25 0.0659094699
H  H42  1  0.66355000  0.55307000  0.56521000  0.25 0.0659094699
H  H43  1  0.43072000  0.37983000  0.56523000  0.25 0.0659094699
H  H44  1  0.33645000  0.44693000  0.56521000  0.25 0.0659094699
H  H45  1  0.43072000  0.62017000  0.43477000  0.25 0.0659094699
H  H46  1  0.33645000  0.55307000  0.43479000  0.25 0.0659094699
H  H47  1  0.56928000  0.37983000  0.43477000  0.25 0.0659094699
H  H48  1  0.66355000  0.44693000  0.43479000  0.25 0.0659094699
H  H49  1  0.33619000  0.53844000  0.20212000  0.31 0.043568457
H  H50  1  0.33224000  0.54053000  0.32888000  0.31 0.0314608705
H  H51  1  0.66381000  0.46156000  0.20212000  0.31 0.043568457
H  H52  1  0.66776000  0.45947000  0.32888000  0.31 0.0314608705
H  H53  1  0.66381000  0.53844000  0.79788000  0.31 0.043568457
H  H54  1  0.66776000  0.54053000  0.67112000  0.31 0.0314608705
H  H55  1  0.33619000  0.46156000  0.79788000  0.31 0.043568457
H  H56  1  0.33224000  0.45947000  0.67112000  0.31 0.0314608705
H  H57  1  0.66381000  0.46156000  0.79788000  0.31 0.043568457
H  H58  1  0.66776000  0.45947000  0.67112000  0.31 0.0314608705
H  H59  1  0.33619000  0.53844000  0.79788000  0.31 0.043568457
H  H60  1  0.33224000  0.54053000  0.67112000  0.31 0.0314608705
H  H61  1  0.33619000  0.46156000  0.20212000  0.31 0.043568457
H  H62  1  0.33224000  0.45947000  0.32888000  0.31 0.0314608705
H  H63  1  0.66381000  0.53844000  0.20212000  0.31 0.043568457
H  H64  1  0.66776000  0.54053000  0.32888000  0.31 0.0314608705
C  C1  1  0.22730000  0.27016000  0.06422000  1.0 -0.1216128893
C  C2  1  0.16010000  0.19730000  0.06376000  1.0 -0.1522390875
C  C3  1  0.77270000  0.72984000  0.06422000  1.0 -0.1216128893
C  C4  1  0.83990000  0.80270000  0.06376000  1.0 -0.1522390875
C  C5  1  0.77270000  0.27016000  0.93578000  1.0 -0.1216128893
C  C6  1  0.83990000  0.19730000  0.93624000  1.0 -0.1522390875
C  C7  1  0.22730000  0.72984000  0.93578000  1.0 -0.1216128893
C  C8  1  0.16010000  0.80270000  0.93624000  1.0 -0.1522390875
C  C9  1  0.77270000  0.72984000  0.93578000  1.0 -0.1216128893
C  C10  1  0.83990000  0.80270000  0.93624000  1.0 -0.1522390875
C  C11  1  0.22730000  0.27016000  0.93578000  1.0 -0.1216128893
C  C12  1  0.16010000  0.19730000  0.93624000  1.0 -0.1522390875
C  C13  1  0.22730000  0.72984000  0.06422000  1.0 -0.1216128893
C  C14  1  0.16010000  0.80270000  0.06376000  1.0 -0.1522390875
C  C15  1  0.77270000  0.27016000  0.06422000  1.0 -0.1216128893
C  C16  1  0.83990000  0.19730000  0.06376000  1.0 -0.1522390875
C  C17  1  0.50000000  0.50000000  0.34220000  1.0 -0.0115473816
C  C18  1  0.50000000  0.50000000  0.42400000  1.0 0.0092081078
C  C19  1  0.50000000  0.50000000  0.65780000  1.0 -0.0115473816
C  C20  1  0.50000000  0.50000000  0.57600000  1.0 0.0092081078
C  C21  1  0.11760000  0.00000000  0.00000000  1.0 -0.0020300544
C  C22  1  0.88240000  0.00000000  0.00000000  1.0 -0.0020300544
C  C23  1  0.34480000  0.38171000  0.00000000  1.0 0.5420119934
C  C24  1  0.26360000  0.30640000  0.00000000  1.0 0.0019506146
C  C25  1  0.12760000  0.15981000  0.00000000  1.0 0.0581626703
C  C26  1  0.06140000  0.07787000  0.00000000  1.0 -0.0115473816
C  C27  1  0.65520000  0.61829000  0.00000000  1.0 0.5420119934
C  C28  1  0.73640000  0.69360000  0.00000000  1.0 0.0019506146
C  C29  1  0.87240000  0.84019000  0.00000000  1.0 0.0581626703
C  C30  1  0.93860000  0.92213000  0.00000000  1.0 -0.0115473816
C  C31  1  0.65520000  0.38171000  0.00000000  1.0 0.5420119934
C  C32  1  0.73640000  0.30640000  0.00000000  1.0 0.0019506146
C  C33  1  0.87240000  0.15981000  0.00000000  1.0 0.0581626703
C  C34  1  0.93860000  0.07787000  0.00000000  1.0 -0.0115473816
C  C35  1  0.34480000  0.61829000  0.00000000  1.0 0.5420119934
C  C36  1  0.26360000  0.69360000  0.00000000  1.0 0.0019506146
C  C37  1  0.12760000  0.84019000  0.00000000  1.0 0.0581626703
C  C38  1  0.06140000  0.92213000  0.00000000  1.0 -0.0115473816
C  C39  1  0.44360000  0.44160000  0.22960000  0.19 -0.0350549347
C  C40  1  0.44020000  0.43810000  0.30440000  0.19 -0.0615877814
C  C41  1  0.55640000  0.55840000  0.22960000  0.19 -0.0350549347
C  C42  1  0.55980000  0.56190000  0.30440000  0.19 -0.0615877814
C  C43  1  0.55640000  0.44160000  0.77040000  0.19 -0.0350549347
C  C44  1  0.55980000  0.43810000  0.69560000  0.19 -0.0615877814
C  C45  1  0.44360000  0.55840000  0.77040000  0.19 -0.0350549347
C  C46  1  0.44020000  0.56190000  0.69560000  0.19 -0.0615877814
C  C47  1  0.55640000  0.55840000  0.77040000  0.19 -0.0350549347
C  C48  1  0.55980000  0.56190000  0.69560000  0.19 -0.0615877814
C  C49  1  0.44360000  0.44160000  0.77040000  0.19 -0.0350549347
C  C50  1  0.44020000  0.43810000  0.69560000  0.19 -0.0615877814
C  C51  1  0.44360000  0.55840000  0.22960000  0.19 -0.0350549347
C  C52  1  0.44020000  0.56190000  0.30440000  0.19 -0.0615877814
C  C53  1  0.55640000  0.44160000  0.22960000  0.19 -0.0350549347
C  C54  1  0.55980000  0.43810000  0.30440000  0.19 -0.0615877814
C  C55  1  0.45780000  0.42850000  0.46140000  0.25 -0.0299507245
C  C56  1  0.40260000  0.46820000  0.46140000  0.25 -0.0299507245
C  C57  1  0.54220000  0.57150000  0.46140000  0.25 -0.0299507245
C  C58  1  0.59740000  0.53180000  0.46140000  0.25 -0.0299507245
C  C59  1  0.54220000  0.42850000  0.53860000  0.25 -0.0299507245
C  C60  1  0.59740000  0.46820000  0.53860000  0.25 -0.0299507245
C  C61  1  0.45780000  0.57150000  0.53860000  0.25 -0.0299507245
C  C62  1  0.40260000  0.53180000  0.53860000  0.25 -0.0299507245
C  C63  1  0.54220000  0.57150000  0.53860000  0.25 -0.0299507245
C  C64  1  0.59740000  0.53180000  0.53860000  0.25 -0.0299507245
C  C65  1  0.45780000  0.42850000  0.53860000  0.25 -0.0299507245
C  C66  1  0.40260000  0.46820000  0.53860000  0.25 -0.0299507245
C  C67  1  0.45780000  0.57150000  0.46140000  0.25 -0.0299507245
C  C68  1  0.40260000  0.53180000  0.46140000  0.25 -0.0299507245
C  C69  1  0.54220000  0.42850000  0.46140000  0.25 -0.0299507245
C  C70  1  0.59740000  0.46820000  0.46140000  0.25 -0.0299507245
C  C71  1  0.40520000  0.52240000  0.22850000  0.31 -0.0020300544
C  C72  1  0.40170000  0.52330000  0.30340000  0.31 -0.0177825549
C  C73  1  0.59480000  0.47760000  0.22850000  0.31 -0.0020300544
C  C74  1  0.59830000  0.47670000  0.30340000  0.31 -0.0177825549
C  C75  1  0.59480000  0.52240000  0.77150000  0.31 -0.0020300544
C  C76  1  0.59830000  0.52330000  0.69660000  0.31 -0.0177825549
C  C77  1  0.40520000  0.47760000  0.77150000  0.31 -0.0020300544
C  C78  1  0.40170000  0.47670000  0.69660000  0.31 -0.0177825549
C  C79  1  0.59480000  0.47760000  0.77150000  0.31 -0.0020300544
C  C80  1  0.59830000  0.47670000  0.69660000  0.31 -0.0177825549
C  C81  1  0.40520000  0.52240000  0.77150000  0.31 -0.0020300544
C  C82  1  0.40170000  0.52330000  0.69660000  0.31 -0.0177825549
C  C83  1  0.40520000  0.47760000  0.22850000  0.31 -0.0020300544
C  C84  1  0.40170000  0.47670000  0.30340000  0.31 -0.0177825549
C  C85  1  0.59480000  0.52240000  0.22850000  0.31 -0.0020300544
C  C86  1  0.59830000  0.52330000  0.30340000  0.31 -0.0177825549
Br  Br1  1  0.28454000  0.00000000  0.00000000  1.0 -0.0615877814
Br  Br2  1  0.71546000  0.00000000  0.00000000  1.0 -0.0615877814
N  N1  1  0.50000000  0.50000000  0.19100000  1.0 -0.1823447994
N  N2  1  0.50000000  0.50000000  0.80900000  1.0 -0.1823447994
O  O1  1  0.37657000  0.40965000  0.06038000  1.0 -0.520918829
O  O2  1  0.62343000  0.59035000  0.06038000  1.0 -0.520918829
O  O3  1  0.62343000  0.40965000  0.93962000  1.0 -0.520918829
O  O4  1  0.37657000  0.59035000  0.93962000  1.0 -0.520918829
O  O5  1  0.62343000  0.59035000  0.93962000  1.0 -0.520918829
O  O6  1  0.37657000  0.40965000  0.93962000  1.0 -0.520918829
O  O7  1  0.37657000  0.59035000  0.06038000  1.0 -0.520918829
O  O8  1  0.62343000  0.40965000  0.06038000  1.0 -0.520918829
