# DDEC6 charges by PACMAN v1.1 (https://github.com/mtap-research/PACMAN-charge/)
data_ja0c07251_si_004_ASR_pacman
_symmetry_space_group_name_H-M   'P 1'
_cell_length_a   15.27250000
_cell_length_b   15.27250000
_cell_length_c   23.30100000
_cell_angle_alpha   90.00000000
_cell_angle_beta   90.00000000
_cell_angle_gamma   90.00000000
_symmetry_Int_Tables_number   1
_chemical_formula_structural   ZnH20C34NO4
_chemical_formula_sum   'Zn4 H80 C136 N4 O16'
_cell_volume   5434.94091988
_cell_formula_units_Z   4
loop_
 _symmetry_equiv_pos_site_id
 _symmetry_equiv_pos_as_xyz
  1  'x, y, z'
loop_
 _atom_site_type_symbol
 _atom_site_label
 _atom_site_symmetry_multiplicity
 _atom_site_fract_x
 _atom_site_fract_y
 _atom_site_fract_z
 _atom_site_occupancy
 _atom_site_charge
Zn  Zn1  1  0.50000000  0.50000000  0.43697000  1.0 0.7847719327
Zn  Zn2  1  0.00000000  0.00000000  0.56303000  1.0 0.7847719327
Zn  Zn3  1  0.50000000  0.50000000  0.56303000  1.0 0.7847719327
Zn  Zn4  1  0.00000000  0.00000000  0.43697000  1.0 0.7847719327
H  H1  1  0.73020000  0.55370000  0.59370000  1.0 0.1252340204
H  H2  1  0.83480000  0.55730000  0.66680000  1.0 0.1190309873
H  H3  1  0.50860000  0.36000000  0.06380000  1.0 0.1513533627
H  H4  1  0.26980000  0.44630000  0.59370000  1.0 0.1252340204
H  H5  1  0.16520000  0.44270000  0.66680000  1.0 0.1190309873
H  H6  1  0.49140000  0.64000000  0.06380000  1.0 0.1513533627
H  H7  1  0.44630000  0.73020000  0.59370000  1.0 0.1252340204
H  H8  1  0.44270000  0.83480000  0.66680000  1.0 0.1190309873
H  H9  1  0.64000000  0.50860000  0.06380000  1.0 0.1513533627
H  H10  1  0.55370000  0.26980000  0.59370000  1.0 0.1252340204
H  H11  1  0.55730000  0.16520000  0.66680000  1.0 0.1190309873
H  H12  1  0.36000000  0.49140000  0.06380000  1.0 0.1513533627
H  H13  1  0.76980000  0.05370000  0.40630000  1.0 0.1252340204
H  H14  1  0.66520000  0.05730000  0.33320000  1.0 0.1190309873
H  H15  1  0.99140000  0.86000000  0.93620000  1.0 0.1555640832
H  H16  1  0.23020000  0.94630000  0.40630000  1.0 0.1252340204
H  H17  1  0.33480000  0.94270000  0.33320000  1.0 0.1190309873
H  H18  1  0.00860000  0.14000000  0.93620000  1.0 0.1513533627
H  H19  1  0.05370000  0.23020000  0.40630000  1.0 0.1252340204
H  H20  1  0.05730000  0.33480000  0.33320000  1.0 0.1190309873
H  H21  1  0.86000000  0.00860000  0.93620000  1.0 0.1513533627
H  H22  1  0.94630000  0.76980000  0.40630000  1.0 0.1252340204
H  H23  1  0.94270000  0.66520000  0.33320000  1.0 0.1190309873
H  H24  1  0.14000000  0.99140000  0.93620000  1.0 0.1513533627
H  H25  1  0.26980000  0.44630000  0.40630000  1.0 0.1252340204
H  H26  1  0.16520000  0.44270000  0.33320000  1.0 0.1190309873
H  H27  1  0.49140000  0.64000000  0.93620000  1.0 0.1513533627
H  H28  1  0.73020000  0.55370000  0.40630000  1.0 0.1252340204
H  H29  1  0.83480000  0.55730000  0.33320000  1.0 0.1190309873
H  H30  1  0.50860000  0.36000000  0.93620000  1.0 0.1513533627
H  H31  1  0.55370000  0.26980000  0.40630000  1.0 0.1252340204
H  H32  1  0.55730000  0.16520000  0.33320000  1.0 0.1190309873
H  H33  1  0.36000000  0.49140000  0.93620000  1.0 0.1513533627
H  H34  1  0.44630000  0.73020000  0.40630000  1.0 0.1252340204
H  H35  1  0.44270000  0.83480000  0.33320000  1.0 0.1190309873
H  H36  1  0.64000000  0.50860000  0.93620000  1.0 0.1513533627
H  H37  1  0.23020000  0.94630000  0.59370000  1.0 0.1252340204
H  H38  1  0.33480000  0.94270000  0.66680000  1.0 0.1190309873
H  H39  1  0.00860000  0.14000000  0.06380000  1.0 0.1513533627
H  H40  1  0.76980000  0.05370000  0.59370000  1.0 0.1252340204
H  H41  1  0.66520000  0.05730000  0.66680000  1.0 0.1190309873
H  H42  1  0.99140000  0.86000000  0.06380000  1.0 0.1513533627
H  H43  1  0.94630000  0.76980000  0.59370000  1.0 0.1252340204
H  H44  1  0.94270000  0.66520000  0.66680000  1.0 0.1190309873
H  H45  1  0.14000000  0.99140000  0.06380000  1.0 0.1513533627
H  H46  1  0.05370000  0.23020000  0.59370000  1.0 0.1252340204
H  H47  1  0.05730000  0.33480000  0.66680000  1.0 0.1190309873
H  H48  1  0.86000000  0.00860000  0.06380000  1.0 0.1513533627
H  H49  1  0.54310000  0.74130000  0.50000000  1.0 0.1190309873
H  H50  1  0.50370000  0.88860000  0.50000000  1.0 0.1111536914
H  H51  1  0.45690000  0.25870000  0.50000000  1.0 0.1190309873
H  H52  1  0.49630000  0.11140000  0.50000000  1.0 0.1111536914
H  H53  1  0.25870000  0.54310000  0.50000000  1.0 0.1190309873
H  H54  1  0.11140000  0.50370000  0.50000000  1.0 0.1111536914
H  H55  1  0.74130000  0.45690000  0.50000000  1.0 0.1190309873
H  H56  1  0.88860000  0.49630000  0.50000000  1.0 0.1111536914
H  H57  1  0.95690000  0.24130000  0.50000000  1.0 0.1190309873
H  H58  1  0.99630000  0.38860000  0.50000000  1.0 0.1111536914
H  H59  1  0.04310000  0.75870000  0.50000000  1.0 0.1190309873
H  H60  1  0.00370000  0.61140000  0.50000000  1.0 0.1111536914
H  H61  1  0.24130000  0.04310000  0.50000000  1.0 0.1190309873
H  H62  1  0.38860000  0.00370000  0.50000000  1.0 0.1111536914
H  H63  1  0.75870000  0.95690000  0.50000000  1.0 0.1190309873
H  H64  1  0.61140000  0.99630000  0.50000000  1.0 0.1111536914
H  H65  1  0.60890000  0.43140000  0.34090000  0.5 0.1111536914
H  H66  1  0.60540000  0.42820000  0.24030000  0.5 0.1190309873
H  H67  1  0.39110000  0.56860000  0.34090000  0.5 0.1111536914
H  H68  1  0.39460000  0.57180000  0.24030000  0.5 0.1190309873
H  H69  1  0.56860000  0.60890000  0.34090000  0.5 0.1111536914
H  H70  1  0.57180000  0.60540000  0.24030000  0.5 0.1190309873
H  H71  1  0.43140000  0.39110000  0.34090000  0.5 0.1111536914
H  H72  1  0.42820000  0.39460000  0.24030000  0.5 0.1190309873
H  H73  1  0.89110000  0.93140000  0.65910000  0.5 0.1111536914
H  H74  1  0.89460000  0.92820000  0.75970000  0.5 0.1190309873
H  H75  1  0.10890000  0.06860000  0.65910000  0.5 0.1111536914
H  H76  1  0.10540000  0.07180000  0.75970000  0.5 0.1190309873
H  H77  1  0.93140000  0.10890000  0.65910000  0.5 0.1111536914
H  H78  1  0.92820000  0.10540000  0.75970000  0.5 0.1190309873
H  H79  1  0.06860000  0.89110000  0.65910000  0.5 0.1111536914
H  H80  1  0.07180000  0.89460000  0.75970000  0.5 0.1190309873
H  H81  1  0.39110000  0.56860000  0.65910000  0.5 0.1111536914
H  H82  1  0.39460000  0.57180000  0.75970000  0.5 0.1190309873
H  H83  1  0.60890000  0.43140000  0.65910000  0.5 0.1111536914
H  H84  1  0.60540000  0.42820000  0.75970000  0.5 0.1190309873
H  H85  1  0.43140000  0.39110000  0.65910000  0.5 0.1111536914
H  H86  1  0.42820000  0.39460000  0.75970000  0.5 0.1190309873
H  H87  1  0.56860000  0.60890000  0.65910000  0.5 0.1111536914
H  H88  1  0.57180000  0.60540000  0.75970000  0.5 0.1190309873
H  H89  1  0.10890000  0.06860000  0.34090000  0.5 0.1111536914
H  H90  1  0.10540000  0.07180000  0.24030000  0.5 0.1190309873
H  H91  1  0.89110000  0.93140000  0.34090000  0.5 0.1111536914
H  H92  1  0.89460000  0.92820000  0.24030000  0.5 0.1190309873
H  H93  1  0.06860000  0.89110000  0.34090000  0.5 0.1111536914
H  H94  1  0.07180000  0.89460000  0.24030000  0.5 0.1190309873
H  H95  1  0.93140000  0.10890000  0.34090000  0.5 0.1111536914
H  H96  1  0.92820000  0.10540000  0.24030000  0.5 0.1190309873
C  C1  1  0.77350000  0.66200000  0.55270000  1.0 0.0314191677
C  C2  1  0.77330000  0.59860000  0.59430000  1.0 -0.1410135381
C  C3  1  0.83580000  0.60020000  0.63730000  1.0 -0.1121832561
C  C4  1  0.50600000  0.40900000  0.03900000  1.0 -0.2073662818
C  C5  1  0.22650000  0.33800000  0.55270000  1.0 0.0314191677
C  C6  1  0.22670000  0.40140000  0.59430000  1.0 -0.1410135381
C  C7  1  0.16420000  0.39980000  0.63730000  1.0 -0.1121832561
C  C8  1  0.49400000  0.59100000  0.03900000  1.0 -0.2073662818
C  C9  1  0.33800000  0.77350000  0.55270000  1.0 0.0314191677
C  C10  1  0.40140000  0.77330000  0.59430000  1.0 -0.1410135381
C  C11  1  0.39980000  0.83580000  0.63730000  1.0 -0.1121832561
C  C12  1  0.59100000  0.50600000  0.03900000  1.0 -0.2073662818
C  C13  1  0.66200000  0.22650000  0.55270000  1.0 0.0314191677
C  C14  1  0.59860000  0.22670000  0.59430000  1.0 -0.1410135381
C  C15  1  0.60020000  0.16420000  0.63730000  1.0 -0.1121832561
C  C16  1  0.40900000  0.49400000  0.03900000  1.0 -0.2073662818
C  C17  1  0.72650000  0.16200000  0.44730000  1.0 0.0314191677
C  C18  1  0.72670000  0.09860000  0.40570000  1.0 -0.1410135381
C  C19  1  0.66420000  0.10020000  0.36270000  1.0 -0.1121832561
C  C20  1  0.99400000  0.90900000  0.96100000  1.0 -0.2073662818
C  C21  1  0.27350000  0.83800000  0.44730000  1.0 0.0314191677
C  C22  1  0.27330000  0.90140000  0.40570000  1.0 -0.1410135381
C  C23  1  0.33580000  0.89980000  0.36270000  1.0 -0.1121832561
C  C24  1  0.00600000  0.09100000  0.96100000  1.0 -0.2073662818
C  C25  1  0.16200000  0.27350000  0.44730000  1.0 0.0314191677
C  C26  1  0.09860000  0.27330000  0.40570000  1.0 -0.1410135381
C  C27  1  0.10020000  0.33580000  0.36270000  1.0 -0.1121832561
C  C28  1  0.90900000  0.00600000  0.96100000  1.0 -0.2073662818
C  C29  1  0.83800000  0.72650000  0.44730000  1.0 0.0314191677
C  C30  1  0.90140000  0.72670000  0.40570000  1.0 -0.1410135381
C  C31  1  0.89980000  0.66420000  0.36270000  1.0 -0.1121832561
C  C32  1  0.09100000  0.99400000  0.96100000  1.0 -0.2073662818
C  C33  1  0.22650000  0.33800000  0.44730000  1.0 0.0314191677
C  C34  1  0.22670000  0.40140000  0.40570000  1.0 -0.1410135381
C  C35  1  0.16420000  0.39980000  0.36270000  1.0 -0.1121832561
C  C36  1  0.49400000  0.59100000  0.96100000  1.0 -0.2073662818
C  C37  1  0.77350000  0.66200000  0.44730000  1.0 0.0314191677
C  C38  1  0.77330000  0.59860000  0.40570000  1.0 -0.1410135381
C  C39  1  0.83580000  0.60020000  0.36270000  1.0 -0.1121832561
C  C40  1  0.50600000  0.40900000  0.96100000  1.0 -0.2073662818
C  C41  1  0.66200000  0.22650000  0.44730000  1.0 0.0314191677
C  C42  1  0.59860000  0.22670000  0.40570000  1.0 -0.1410135381
C  C43  1  0.60020000  0.16420000  0.36270000  1.0 -0.1121832561
C  C44  1  0.40900000  0.49400000  0.96100000  1.0 -0.2073662818
C  C45  1  0.33800000  0.77350000  0.44730000  1.0 0.0314191677
C  C46  1  0.40140000  0.77330000  0.40570000  1.0 -0.1410135381
C  C47  1  0.39980000  0.83580000  0.36270000  1.0 -0.1121832561
C  C48  1  0.59100000  0.50600000  0.96100000  1.0 -0.2073662818
C  C49  1  0.27350000  0.83800000  0.55270000  1.0 0.0314191677
C  C50  1  0.27330000  0.90140000  0.59430000  1.0 -0.1410135381
C  C51  1  0.33580000  0.89980000  0.63730000  1.0 -0.1121832561
C  C52  1  0.00600000  0.09100000  0.03900000  1.0 -0.2073662818
C  C53  1  0.72650000  0.16200000  0.55270000  1.0 0.0314191677
C  C54  1  0.72670000  0.09860000  0.59430000  1.0 -0.1410135381
C  C55  1  0.66420000  0.10020000  0.63730000  1.0 -0.1121832561
C  C56  1  0.99400000  0.90900000  0.03900000  1.0 -0.2073662818
C  C57  1  0.83800000  0.72650000  0.55270000  1.0 0.0314191677
C  C58  1  0.90140000  0.72670000  0.59430000  1.0 -0.1410135381
C  C59  1  0.89980000  0.66420000  0.63730000  1.0 -0.1121832561
C  C60  1  0.09100000  0.99400000  0.03900000  1.0 -0.2073662818
C  C61  1  0.16200000  0.27350000  0.55270000  1.0 0.0314191677
C  C62  1  0.09860000  0.27330000  0.59430000  1.0 -0.1410135381
C  C63  1  0.10020000  0.33580000  0.63730000  1.0 -0.1121832561
C  C64  1  0.90900000  0.00600000  0.03900000  1.0 -0.2073662818
C  C65  1  0.50000000  0.50000000  0.23280000  1.0 0.0223667281
C  C66  1  0.50000000  0.50000000  0.17100000  1.0 -0.1121832561
C  C67  1  0.50000000  0.50000000  0.11500000  1.0 -0.2790909275
C  C68  1  0.50000000  0.50000000  0.05300000  1.0 0.3381852344
C  C69  1  0.00000000  0.00000000  0.76720000  1.0 0.0223667281
C  C70  1  0.00000000  0.00000000  0.82900000  1.0 -0.1159865983
C  C71  1  0.00000000  0.00000000  0.88500000  1.0 -0.2790909275
C  C72  1  0.00000000  0.00000000  0.94700000  1.0 0.3381852344
C  C73  1  0.50000000  0.50000000  0.76720000  1.0 0.0223667281
C  C74  1  0.50000000  0.50000000  0.82900000  1.0 -0.1121832561
C  C75  1  0.50000000  0.50000000  0.88500000  1.0 -0.2746214732
C  C76  1  0.50000000  0.50000000  0.94700000  1.0 0.3381852344
C  C77  1  0.00000000  0.00000000  0.23280000  1.0 0.0223667281
C  C78  1  0.00000000  0.00000000  0.17100000  1.0 -0.1159865983
C  C79  1  0.00000000  0.00000000  0.11500000  1.0 -0.2790909275
C  C80  1  0.00000000  0.00000000  0.05300000  1.0 0.3349992469
C  C81  1  0.63130000  0.60600000  0.50000000  1.0 0.5685862288
C  C82  1  0.71000000  0.66750000  0.50000000  1.0 -0.0536296559
C  C83  1  0.67520000  0.76150000  0.50000000  1.0 0.0314191677
C  C84  1  0.58710000  0.78530000  0.50000000  1.0 -0.1493061349
C  C85  1  0.56380000  0.87250000  0.50000000  1.0 -0.0905651511
C  C86  1  0.36870000  0.39400000  0.50000000  1.0 0.5685862288
C  C87  1  0.29000000  0.33250000  0.50000000  1.0 -0.0536296559
C  C88  1  0.32480000  0.23850000  0.50000000  1.0 0.0314191677
C  C89  1  0.41290000  0.21470000  0.50000000  1.0 -0.1493061349
C  C90  1  0.43620000  0.12750000  0.50000000  1.0 -0.0905651511
C  C91  1  0.39400000  0.63130000  0.50000000  1.0 0.5685862288
C  C92  1  0.33250000  0.71000000  0.50000000  1.0 -0.0536296559
C  C93  1  0.23850000  0.67520000  0.50000000  1.0 0.0314191677
C  C94  1  0.21470000  0.58710000  0.50000000  1.0 -0.1493061349
C  C95  1  0.12750000  0.56380000  0.50000000  1.0 -0.0905651511
C  C96  1  0.60600000  0.36870000  0.50000000  1.0 0.5685862288
C  C97  1  0.66750000  0.29000000  0.50000000  1.0 -0.0536296559
C  C98  1  0.76150000  0.32480000  0.50000000  1.0 0.0314191677
C  C99  1  0.78530000  0.41290000  0.50000000  1.0 -0.1493061349
C  C100  1  0.87250000  0.43620000  0.50000000  1.0 -0.0905651511
C  C101  1  0.86870000  0.10600000  0.50000000  1.0 0.5685862288
C  C102  1  0.79000000  0.16750000  0.50000000  1.0 -0.0536296559
C  C103  1  0.82480000  0.26150000  0.50000000  1.0 0.0314191677
C  C104  1  0.91290000  0.28530000  0.50000000  1.0 -0.1493061349
C  C105  1  0.93620000  0.37250000  0.50000000  1.0 -0.0905651511
C  C106  1  0.13130000  0.89400000  0.50000000  1.0 0.5685862288
C  C107  1  0.21000000  0.83250000  0.50000000  1.0 -0.0536296559
C  C108  1  0.17520000  0.73850000  0.50000000  1.0 0.0314191677
C  C109  1  0.08710000  0.71470000  0.50000000  1.0 -0.1493061349
C  C110  1  0.06380000  0.62750000  0.50000000  1.0 -0.0905651511
C  C111  1  0.10600000  0.13130000  0.50000000  1.0 0.5685862288
C  C112  1  0.16750000  0.21000000  0.50000000  1.0 -0.0536296559
C  C113  1  0.26150000  0.17520000  0.50000000  1.0 0.0314191677
C  C114  1  0.28530000  0.08710000  0.50000000  1.0 -0.1493061349
C  C115  1  0.37250000  0.06380000  0.50000000  1.0 -0.0905651511
C  C116  1  0.89400000  0.86870000  0.50000000  1.0 0.5685862288
C  C117  1  0.83250000  0.79000000  0.50000000  1.0 -0.0536296559
C  C118  1  0.73850000  0.82480000  0.50000000  1.0 0.0314191677
C  C119  1  0.71470000  0.91290000  0.50000000  1.0 -0.1493061349
C  C120  1  0.62750000  0.93620000  0.50000000  1.0 -0.0905651511
C  C121  1  0.56240000  0.46000000  0.32140000  0.5 -0.0037645628
C  C122  1  0.56130000  0.45900000  0.26080000  0.5 -0.0987361423
C  C123  1  0.43760000  0.54000000  0.32140000  0.5 -0.0037645628
C  C124  1  0.43870000  0.54100000  0.26080000  0.5 -0.0987361423
C  C125  1  0.54000000  0.56240000  0.32140000  0.5 -0.0037645628
C  C126  1  0.54100000  0.56130000  0.26080000  0.5 -0.0987361423
C  C127  1  0.46000000  0.43760000  0.32140000  0.5 -0.0037645628
C  C128  1  0.45900000  0.43870000  0.26080000  0.5 -0.0987361423
C  C129  1  0.93760000  0.96000000  0.67860000  0.5 -0.0037645628
C  C130  1  0.93870000  0.95900000  0.73920000  0.5 -0.0987361423
C  C131  1  0.06240000  0.04000000  0.67860000  0.5 -0.0037645628
C  C132  1  0.06130000  0.04100000  0.73920000  0.5 -0.0987361423
C  C133  1  0.96000000  0.06240000  0.67860000  0.5 -0.0037645628
C  C134  1  0.95900000  0.06130000  0.73920000  0.5 -0.0987361423
C  C135  1  0.04000000  0.93760000  0.67860000  0.5 -0.0037645628
C  C136  1  0.04100000  0.93870000  0.73920000  0.5 -0.0987361423
C  C137  1  0.43760000  0.54000000  0.67860000  0.5 -0.0037645628
C  C138  1  0.43870000  0.54100000  0.73920000  0.5 -0.0987361423
C  C139  1  0.56240000  0.46000000  0.67860000  0.5 -0.0037645628
C  C140  1  0.56130000  0.45900000  0.73920000  0.5 -0.0987361423
C  C141  1  0.46000000  0.43760000  0.67860000  0.5 -0.0037645628
C  C142  1  0.45900000  0.43870000  0.73920000  0.5 -0.0987361423
C  C143  1  0.54000000  0.56240000  0.67860000  0.5 -0.0037645628
C  C144  1  0.54100000  0.56130000  0.73920000  0.5 -0.0987361423
C  C145  1  0.06240000  0.04000000  0.32140000  0.5 -0.0037645628
C  C146  1  0.06130000  0.04100000  0.26080000  0.5 -0.0987361423
C  C147  1  0.93760000  0.96000000  0.32140000  0.5 -0.0037645628
C  C148  1  0.93870000  0.95900000  0.26080000  0.5 -0.0987361423
C  C149  1  0.04000000  0.93760000  0.32140000  0.5 -0.0037645628
C  C150  1  0.04100000  0.93870000  0.26080000  0.5 -0.0987361423
C  C151  1  0.96000000  0.06240000  0.32140000  0.5 -0.0037645628
C  C152  1  0.95900000  0.06130000  0.26080000  0.5 -0.0987361423
N  N1  1  0.50000000  0.50000000  0.35250000  1.0 -0.0797842905
N  N2  1  0.00000000  0.00000000  0.64750000  1.0 -0.0797842905
N  N3  1  0.50000000  0.50000000  0.64750000  1.0 -0.0797842905
N  N4  1  0.00000000  0.00000000  0.35250000  1.0 -0.0797842905
O  O1  1  0.60000000  0.58500000  0.45223000  1.0 -0.5309373267
O  O2  1  0.40000000  0.41500000  0.45223000  1.0 -0.5309373267
O  O3  1  0.41500000  0.60000000  0.45223000  1.0 -0.5309373267
O  O4  1  0.58500000  0.40000000  0.45223000  1.0 -0.5309373267
O  O5  1  0.90000000  0.08500000  0.54777000  1.0 -0.5309373267
O  O6  1  0.10000000  0.91500000  0.54777000  1.0 -0.5309373267
O  O7  1  0.08500000  0.10000000  0.54777000  1.0 -0.5309373267
O  O8  1  0.91500000  0.90000000  0.54777000  1.0 -0.5309373267
O  O9  1  0.40000000  0.41500000  0.54777000  1.0 -0.5309373267
O  O10  1  0.60000000  0.58500000  0.54777000  1.0 -0.5309373267
O  O11  1  0.58500000  0.40000000  0.54777000  1.0 -0.5309373267
O  O12  1  0.41500000  0.60000000  0.54777000  1.0 -0.5309373267
O  O13  1  0.10000000  0.91500000  0.45223000  1.0 -0.5309373267
O  O14  1  0.90000000  0.08500000  0.45223000  1.0 -0.5309373267
O  O15  1  0.91500000  0.90000000  0.45223000  1.0 -0.5309373267
O  O16  1  0.08500000  0.10000000  0.45223000  1.0 -0.5309373267
