# DDEC6 charges by PACMAN v1.1 (https://github.com/mtap-research/PACMAN-charge/)
data_c5dt03710g2_12_FSR_pacman
_symmetry_space_group_name_H-M   'P 1'
_cell_length_a   13.96600000
_cell_length_b   16.69200000
_cell_length_c   9.64060000
_cell_angle_alpha   90.00000000
_cell_angle_beta   90.00000000
_cell_angle_gamma   90.00000000
_symmetry_Int_Tables_number   1
_chemical_formula_structural   ZnH9C11NO4
_chemical_formula_sum   'Zn4 H36 C44 N4 O16'
_cell_volume   2247.42122236
_cell_formula_units_Z   4
loop_
 _symmetry_equiv_pos_site_id
 _symmetry_equiv_pos_as_xyz
  1  'x, y, z'
loop_
 _atom_site_type_symbol
 _atom_site_label
 _atom_site_symmetry_multiplicity
 _atom_site_fract_x
 _atom_site_fract_y
 _atom_site_fract_z
 _atom_site_occupancy
 _atom_site_charge
Zn  Zn1  1  0.00000000  0.00000000  0.34767000  1.0 0.7495714164
Zn  Zn2  1  0.00000000  0.00000000  0.65233000  1.0 0.7495714164
Zn  Zn3  1  0.50000000  0.50000000  0.34767000  1.0 0.7495714164
Zn  Zn4  1  0.50000000  0.50000000  0.65233000  1.0 0.7495714164
H  H1  1  0.19920000  0.19470000  0.29200000  1.0 0.1247055362
H  H2  1  0.80080000  0.80530000  0.29200000  1.0 0.1247055362
H  H3  1  0.80080000  0.19470000  0.70800000  1.0 0.1247055362
H  H4  1  0.19920000  0.80530000  0.70800000  1.0 0.1247055362
H  H5  1  0.69920000  0.69470000  0.29200000  1.0 0.1247055362
H  H6  1  0.30080000  0.30530000  0.29200000  1.0 0.1247055362
H  H7  1  0.30080000  0.69470000  0.70800000  1.0 0.1247055362
H  H8  1  0.69920000  0.30530000  0.70800000  1.0 0.1247055362
H  H9  1  0.80080000  0.80530000  0.70800000  1.0 0.1247055362
H  H10  1  0.19920000  0.19470000  0.70800000  1.0 0.1247055362
H  H11  1  0.19920000  0.80530000  0.29200000  1.0 0.1247055362
H  H12  1  0.80080000  0.19470000  0.29200000  1.0 0.1247055362
H  H13  1  0.30080000  0.30530000  0.70800000  1.0 0.1247055362
H  H14  1  0.69920000  0.69470000  0.70800000  1.0 0.1247055362
H  H15  1  0.69920000  0.30530000  0.29200000  1.0 0.1247055362
H  H16  1  0.30080000  0.69470000  0.29200000  1.0 0.1247055362
H  H17  1  0.05680000  0.10950000  0.11290000  0.25 0.0864263728
H  H18  1  0.94320000  0.89050000  0.11290000  0.25 0.0864263728
H  H19  1  0.94320000  0.10950000  0.88710000  0.25 0.0864263728
H  H20  1  0.05680000  0.89050000  0.88710000  0.25 0.0864263728
H  H21  1  0.55680000  0.60950000  0.11290000  0.25 0.0864263728
H  H22  1  0.44320000  0.39050000  0.11290000  0.25 0.0864263728
H  H23  1  0.44320000  0.60950000  0.88710000  0.25 0.0864263728
H  H24  1  0.55680000  0.39050000  0.88710000  0.25 0.0864263728
H  H25  1  0.94320000  0.89050000  0.88710000  0.25 0.0864263728
H  H26  1  0.05680000  0.10950000  0.88710000  0.25 0.0864263728
H  H27  1  0.05680000  0.89050000  0.11290000  0.25 0.0864263728
H  H28  1  0.94320000  0.10950000  0.11290000  0.25 0.0864263728
H  H29  1  0.44320000  0.39050000  0.88710000  0.25 0.0864263728
H  H30  1  0.55680000  0.60950000  0.88710000  0.25 0.0864263728
H  H31  1  0.55680000  0.39050000  0.11290000  0.25 0.0864263728
H  H32  1  0.44320000  0.60950000  0.11290000  0.25 0.0864263728
H  H33  1  0.14110000  0.01240000  0.11410000  0.5 0.1022023222
H  H34  1  0.85890000  0.98760000  0.11410000  0.5 0.1022023222
H  H35  1  0.85890000  0.01240000  0.88590000  0.5 0.1022023222
H  H36  1  0.14110000  0.98760000  0.88590000  0.5 0.1022023222
H  H37  1  0.64110000  0.51240000  0.11410000  0.5 0.1022023222
H  H38  1  0.35890000  0.48760000  0.11410000  0.5 0.1022023222
H  H39  1  0.35890000  0.51240000  0.88590000  0.5 0.1022023222
H  H40  1  0.64110000  0.48760000  0.88590000  0.5 0.1022023222
H  H41  1  0.85890000  0.98760000  0.88590000  0.5 0.1022023222
H  H42  1  0.14110000  0.01240000  0.88590000  0.5 0.1022023222
H  H43  1  0.14110000  0.98760000  0.11410000  0.5 0.1022023222
H  H44  1  0.85890000  0.01240000  0.11410000  0.5 0.1022023222
H  H45  1  0.35890000  0.48760000  0.88590000  0.5 0.1022023222
H  H46  1  0.64110000  0.51240000  0.88590000  0.5 0.1022023222
H  H47  1  0.64110000  0.48760000  0.11410000  0.5 0.1022023222
H  H48  1  0.35890000  0.51240000  0.11410000  0.5 0.1022023222
H  H49  1  0.08500000  0.09500000  0.11410000  0.5 0.0864263728
H  H50  1  0.91500000  0.90500000  0.11410000  0.5 0.0864263728
H  H51  1  0.91500000  0.09500000  0.88590000  0.5 0.0864263728
H  H52  1  0.08500000  0.90500000  0.88590000  0.5 0.0864263728
H  H53  1  0.58500000  0.59500000  0.11410000  0.5 0.0864263728
H  H54  1  0.41500000  0.40500000  0.11410000  0.5 0.0864263728
H  H55  1  0.41500000  0.59500000  0.88590000  0.5 0.0864263728
H  H56  1  0.58500000  0.40500000  0.88590000  0.5 0.0864263728
H  H57  1  0.91500000  0.90500000  0.88590000  0.5 0.0864263728
H  H58  1  0.08500000  0.09500000  0.88590000  0.5 0.0864263728
H  H59  1  0.08500000  0.90500000  0.11410000  0.5 0.0864263728
H  H60  1  0.91500000  0.09500000  0.11410000  0.5 0.0864263728
H  H61  1  0.41500000  0.40500000  0.88590000  0.5 0.0864263728
H  H62  1  0.58500000  0.59500000  0.88590000  0.5 0.0864263728
H  H63  1  0.58500000  0.40500000  0.11410000  0.5 0.0864263728
H  H64  1  0.41500000  0.59500000  0.11410000  0.5 0.0864263728
C  C1  1  0.12460000  0.11202000  0.50000000  1.0 0.5567913613
C  C2  1  0.87540000  0.88798000  0.50000000  1.0 0.5567913613
C  C3  1  0.87540000  0.11202000  0.50000000  1.0 0.5567913613
C  C4  1  0.12460000  0.88798000  0.50000000  1.0 0.5567913613
C  C5  1  0.62460000  0.61202000  0.50000000  1.0 0.5567913613
C  C6  1  0.37540000  0.38798000  0.50000000  1.0 0.5567913613
C  C7  1  0.37540000  0.61202000  0.50000000  1.0 0.5567913613
C  C8  1  0.62460000  0.38798000  0.50000000  1.0 0.5567913613
C  C9  1  0.18964000  0.18333000  0.50000000  1.0 -0.0100353678
C  C10  1  0.81036000  0.81667000  0.50000000  1.0 -0.0100353678
C  C11  1  0.81036000  0.18333000  0.50000000  1.0 -0.0100353678
C  C12  1  0.18964000  0.81667000  0.50000000  1.0 -0.0100353678
C  C13  1  0.68964000  0.68333000  0.50000000  1.0 -0.0100353678
C  C14  1  0.31036000  0.31667000  0.50000000  1.0 -0.0100353678
C  C15  1  0.31036000  0.68333000  0.50000000  1.0 -0.0100353678
C  C16  1  0.68964000  0.31667000  0.50000000  1.0 -0.0100353678
C  C17  1  0.21970000  0.21683000  0.37660000  1.0 -0.120159725
C  C18  1  0.78030000  0.78317000  0.37660000  1.0 -0.120159725
C  C19  1  0.78030000  0.21683000  0.62340000  1.0 -0.120159725
C  C20  1  0.21970000  0.78317000  0.62340000  1.0 -0.120159725
C  C21  1  0.71970000  0.71683000  0.37660000  1.0 -0.120159725
C  C22  1  0.28030000  0.28317000  0.37660000  1.0 -0.120159725
C  C23  1  0.28030000  0.71683000  0.62340000  1.0 -0.120159725
C  C24  1  0.71970000  0.28317000  0.62340000  1.0 -0.120159725
C  C25  1  0.78030000  0.78317000  0.62340000  1.0 -0.120159725
C  C26  1  0.21970000  0.21683000  0.62340000  1.0 -0.120159725
C  C27  1  0.21970000  0.78317000  0.37660000  1.0 -0.120159725
C  C28  1  0.78030000  0.21683000  0.37660000  1.0 -0.120159725
C  C29  1  0.28030000  0.28317000  0.62340000  1.0 -0.120159725
C  C30  1  0.71970000  0.71683000  0.62340000  1.0 -0.120159725
C  C31  1  0.71970000  0.28317000  0.37660000  1.0 -0.120159725
C  C32  1  0.28030000  0.71683000  0.37660000  1.0 -0.120159725
C  C33  1  0.00000000  0.08100000  0.07920000  0.5 -0.1255226472
C  C34  1  0.00000000  0.91900000  0.07920000  0.5 -0.1255226472
C  C35  1  0.00000000  0.08100000  0.92080000  0.5 -0.1255226472
C  C36  1  0.00000000  0.91900000  0.92080000  0.5 -0.1255226472
C  C37  1  0.50000000  0.58100000  0.07920000  0.5 -0.1255226472
C  C38  1  0.50000000  0.41900000  0.07920000  0.5 -0.1255226472
C  C39  1  0.50000000  0.58100000  0.92080000  0.5 -0.1255226472
C  C40  1  0.50000000  0.41900000  0.92080000  0.5 -0.1255226472
C  C41  1  0.08350000  0.03960000  0.08030000  0.5 -0.120159725
C  C42  1  0.91650000  0.96040000  0.08030000  0.5 -0.120159725
C  C43  1  0.91650000  0.03960000  0.91970000  0.5 -0.120159725
C  C44  1  0.08350000  0.96040000  0.91970000  0.5 -0.120159725
C  C45  1  0.58350000  0.53960000  0.08030000  0.5 -0.120159725
C  C46  1  0.41650000  0.46040000  0.08030000  0.5 -0.120159725
C  C47  1  0.41650000  0.53960000  0.91970000  0.5 -0.120159725
C  C48  1  0.58350000  0.46040000  0.91970000  0.5 -0.120159725
C  C49  1  0.91650000  0.96040000  0.91970000  0.5 -0.120159725
C  C50  1  0.08350000  0.03960000  0.91970000  0.5 -0.120159725
C  C51  1  0.08350000  0.96040000  0.08030000  0.5 -0.120159725
C  C52  1  0.91650000  0.03960000  0.08030000  0.5 -0.120159725
C  C53  1  0.41650000  0.46040000  0.91970000  0.5 -0.120159725
C  C54  1  0.58350000  0.53960000  0.91970000  0.5 -0.120159725
C  C55  1  0.58350000  0.46040000  0.08030000  0.5 -0.120159725
C  C56  1  0.41650000  0.53960000  0.08030000  0.5 -0.120159725
N  N1  1  0.00000000  0.00000000  0.13360000  1.0 -0.0837512874
N  N2  1  0.00000000  0.00000000  0.86640000  1.0 -0.0837512874
N  N3  1  0.50000000  0.50000000  0.13360000  1.0 -0.0837512874
N  N4  1  0.50000000  0.50000000  0.86640000  1.0 -0.0837512874
O  O1  1  0.09982000  0.08558000  0.38468000  1.0 -0.5365128593
O  O2  1  0.90018000  0.91442000  0.38468000  1.0 -0.5365128593
O  O3  1  0.90018000  0.08558000  0.61532000  1.0 -0.5365128593
O  O4  1  0.09982000  0.91442000  0.61532000  1.0 -0.5365128593
O  O5  1  0.59982000  0.58558000  0.38468000  1.0 -0.5365128593
O  O6  1  0.40018000  0.41442000  0.38468000  1.0 -0.5365128593
O  O7  1  0.40018000  0.58558000  0.61532000  1.0 -0.5365128593
O  O8  1  0.59982000  0.41442000  0.61532000  1.0 -0.5365128593
O  O9  1  0.90018000  0.91442000  0.61532000  1.0 -0.5365128593
O  O10  1  0.09982000  0.08558000  0.61532000  1.0 -0.5365128593
O  O11  1  0.09982000  0.91442000  0.38468000  1.0 -0.5365128593
O  O12  1  0.90018000  0.08558000  0.38468000  1.0 -0.5365128593
O  O13  1  0.40018000  0.41442000  0.61532000  1.0 -0.5365128593
O  O14  1  0.59982000  0.58558000  0.61532000  1.0 -0.5365128593
O  O15  1  0.59982000  0.41442000  0.38468000  1.0 -0.5365128593
O  O16  1  0.40018000  0.58558000  0.38468000  1.0 -0.5365128593
