# DDEC6 charges by PACMAN v1.1 (https://github.com/mtap-research/PACMAN-charge/)
data_d3qi01092a2_3_ASR_pacman
_symmetry_space_group_name_H-M   'P 1'
_cell_length_a   15.06860000
_cell_length_b   15.06860000
_cell_length_c   9.63710000
_cell_angle_alpha   90.00000000
_cell_angle_beta   90.00000000
_cell_angle_gamma   90.00000000
_symmetry_Int_Tables_number   1
_chemical_formula_structural   Zn2H12C14N8O5
_chemical_formula_sum   'Zn8 H48 C56 N32 O20'
_cell_volume   2188.22600361
_cell_formula_units_Z   4
loop_
 _symmetry_equiv_pos_site_id
 _symmetry_equiv_pos_as_xyz
  1  'x, y, z'
loop_
 _atom_site_type_symbol
 _atom_site_label
 _atom_site_symmetry_multiplicity
 _atom_site_fract_x
 _atom_site_fract_y
 _atom_site_fract_z
 _atom_site_occupancy
 _atom_site_charge
Zn  Zn1  1  0.68138000  0.34440000  0.79635000  1.0 0.6033921976
Zn  Zn2  1  0.31862000  0.65560000  0.79635000  1.0 0.6033921976
Zn  Zn3  1  0.34440000  0.31862000  0.20365000  1.0 0.6033921976
Zn  Zn4  1  0.65560000  0.68138000  0.20365000  1.0 0.6033921976
Zn  Zn5  1  0.18138000  0.84440000  0.29635000  1.0 0.6033921976
Zn  Zn6  1  0.81862000  0.15560000  0.29635000  1.0 0.6033921976
Zn  Zn7  1  0.84440000  0.81862000  0.70365000  1.0 0.6033921976
Zn  Zn8  1  0.15560000  0.18138000  0.70365000  1.0 0.6033921976
H  H1  1  0.00613000  0.17385000  0.50103000  1.0 0.1006714989
H  H2  1  0.99387000  0.82615000  0.50103000  1.0 0.1006714989
H  H3  1  0.17385000  0.99387000  0.49897000  1.0 0.1006714989
H  H4  1  0.82615000  0.00613000  0.49897000  1.0 0.1006714989
H  H5  1  0.50613000  0.67385000  0.00103000  1.0 0.1006714989
H  H6  1  0.49387000  0.32615000  0.00103000  1.0 0.1006714989
H  H7  1  0.67385000  0.49387000  0.99897000  1.0 0.1006714989
H  H8  1  0.32615000  0.50613000  0.99897000  1.0 0.1006714989
H  H9  1  0.69292000  0.24148000  0.51076000  1.0 0.1006714989
H  H10  1  0.30708000  0.75852000  0.51076000  1.0 0.1006714989
H  H11  1  0.24148000  0.30708000  0.48924000  1.0 0.1006714989
H  H12  1  0.75852000  0.69292000  0.48924000  1.0 0.1006714989
H  H13  1  0.19292000  0.74148000  0.01076000  1.0 0.1006714989
H  H14  1  0.80708000  0.25852000  0.01076000  1.0 0.1006714989
H  H15  1  0.74148000  0.80708000  0.98924000  1.0 0.1006714989
H  H16  1  0.25852000  0.19292000  0.98924000  1.0 0.1006714989
H  H17  1  0.02647000  0.29436000  0.86374000  1.0 0.109192487
H  H18  1  0.97353000  0.70564000  0.86374000  1.0 0.109192487
H  H19  1  0.29436000  0.97353000  0.13626000  1.0 0.109192487
H  H20  1  0.70564000  0.02647000  0.13626000  1.0 0.109192487
H  H21  1  0.52647000  0.79436000  0.36374000  1.0 0.109192487
H  H22  1  0.47353000  0.20564000  0.36374000  1.0 0.109192487
H  H23  1  0.79436000  0.47353000  0.63626000  1.0 0.109192487
H  H24  1  0.20564000  0.52647000  0.63626000  1.0 0.109192487
H  H25  1  0.43114000  0.35437000  0.54512000  0.5 0.0886365841
H  H26  1  0.56886000  0.64563000  0.54512000  0.5 0.0886365841
H  H27  1  0.35437000  0.56886000  0.45488000  0.5 0.0886365841
H  H28  1  0.64563000  0.43114000  0.45488000  0.5 0.0886365841
H  H29  1  0.93114000  0.85437000  0.04512000  0.5 0.0886365841
H  H30  1  0.06886000  0.14563000  0.04512000  0.5 0.0886365841
H  H31  1  0.85437000  0.06886000  0.95488000  0.5 0.0886365841
H  H32  1  0.14563000  0.93114000  0.95488000  0.5 0.0886365841
H  H33  1  0.40475000  0.38046000  0.70071000  0.5 0.1006714989
H  H34  1  0.59525000  0.61954000  0.70071000  0.5 0.1006714989
H  H35  1  0.38046000  0.59525000  0.29929000  0.5 0.1006714989
H  H36  1  0.61954000  0.40475000  0.29929000  0.5 0.1006714989
H  H37  1  0.90475000  0.88046000  0.20071000  0.5 0.1006714989
H  H38  1  0.09525000  0.11954000  0.20071000  0.5 0.1006714989
H  H39  1  0.88046000  0.09525000  0.79929000  0.5 0.1006714989
H  H40  1  0.11954000  0.90475000  0.79929000  0.5 0.1006714989
H  H41  1  0.39397000  0.28017000  0.64875000  0.5 0.109192487
H  H42  1  0.60603000  0.71983000  0.64875000  0.5 0.109192487
H  H43  1  0.28017000  0.60603000  0.35125000  0.5 0.109192487
H  H44  1  0.71983000  0.39397000  0.35125000  0.5 0.109192487
H  H45  1  0.89397000  0.78017000  0.14875000  0.5 0.109192487
H  H46  1  0.10603000  0.21983000  0.14875000  0.5 0.109192487
H  H47  1  0.78017000  0.10603000  0.85125000  0.5 0.109192487
H  H48  1  0.21983000  0.89397000  0.85125000  0.5 0.109192487
H  H49  1  0.44507000  0.40394000  0.52579000  0.5 0.0707883079
H  H50  1  0.55493000  0.59606000  0.52579000  0.5 0.0707883079
H  H51  1  0.40394000  0.55493000  0.47421000  0.5 0.0707883079
H  H52  1  0.59606000  0.44507000  0.47421000  0.5 0.0707883079
H  H53  1  0.94507000  0.90394000  0.02579000  0.5 0.0707883079
H  H54  1  0.05493000  0.09606000  0.02579000  0.5 0.0707883079
H  H55  1  0.90394000  0.05493000  0.97421000  0.5 0.0707883079
H  H56  1  0.09606000  0.94507000  0.97421000  0.5 0.0707883079
H  H57  1  0.39004000  0.40303000  0.66781000  0.5 0.0886365841
H  H58  1  0.60996000  0.59696000  0.66781000  0.5 0.0886365841
H  H59  1  0.40303000  0.60996000  0.33219000  0.5 0.0886365841
H  H60  1  0.59696000  0.39004000  0.33219000  0.5 0.0886365841
H  H61  1  0.89004000  0.90304000  0.16781000  0.5 0.0886365841
H  H62  1  0.10996000  0.09697000  0.16781000  0.5 0.0886365841
H  H63  1  0.90304000  0.10996000  0.83219000  0.5 0.0886365841
H  H64  1  0.09697000  0.89004000  0.83219000  0.5 0.0886365841
H  H65  1  0.41461000  0.31160000  0.59258000  0.5 0.109192487
H  H66  1  0.58539000  0.68840000  0.59258000  0.5 0.109192487
H  H67  1  0.31160000  0.58539000  0.40742000  0.5 0.109192487
H  H68  1  0.68840000  0.41461000  0.40742000  0.5 0.109192487
H  H69  1  0.91460000  0.81160000  0.09258000  0.5 0.109192487
H  H70  1  0.08539000  0.18840000  0.09258000  0.5 0.109192487
H  H71  1  0.81160000  0.08539000  0.90742000  0.5 0.109192487
H  H72  1  0.18840000  0.91460000  0.90742000  0.5 0.109192487
C  C1  1  0.85740000  0.27190000  0.69040000  1.0 0.2664092209
C  C2  1  0.14260000  0.72810000  0.69040000  1.0 0.2664092209
C  C3  1  0.27190000  0.14260000  0.30960000  1.0 0.2664092209
C  C4  1  0.72810000  0.85740000  0.30960000  1.0 0.2664092209
C  C5  1  0.35740000  0.77190000  0.19040000  1.0 0.2664092209
C  C6  1  0.64260000  0.22810000  0.19040000  1.0 0.2664092209
C  C7  1  0.77190000  0.64260000  0.80960000  1.0 0.2664092209
C  C8  1  0.22810000  0.35740000  0.80960000  1.0 0.2664092209
C  C9  1  0.97990000  0.20530000  0.57590000  1.0 -0.0978774141
C  C10  1  0.02010000  0.79470000  0.57590000  1.0 -0.0978774141
C  C11  1  0.20530000  0.02010000  0.42410000  1.0 -0.0915082369
C  C12  1  0.79470000  0.97990000  0.42410000  1.0 -0.0915082369
C  C13  1  0.47990000  0.70530000  0.07590000  1.0 -0.0978774141
C  C14  1  0.52010000  0.29470000  0.07590000  1.0 -0.0978774141
C  C15  1  0.70530000  0.52010000  0.92410000  1.0 -0.0978774141
C  C16  1  0.29470000  0.47990000  0.92410000  1.0 -0.0978774141
C  C17  1  0.75080000  0.24330000  0.54980000  1.0 0.0886365841
C  C18  1  0.24920000  0.75670000  0.54980000  1.0 0.0886365841
C  C19  1  0.24330000  0.24920000  0.45020000  1.0 0.0886365841
C  C20  1  0.75670000  0.75080000  0.45020000  1.0 0.0886365841
C  C21  1  0.25080000  0.74330000  0.04980000  1.0 0.0886365841
C  C22  1  0.74920000  0.25670000  0.04980000  1.0 0.0886365841
C  C23  1  0.74330000  0.74920000  0.95020000  1.0 0.0886365841
C  C24  1  0.25670000  0.25080000  0.95020000  1.0 0.0886365841
C  C25  1  0.89100000  0.22500000  0.57500000  1.0 0.0378194003
C  C26  1  0.10900000  0.77500000  0.57500000  1.0 0.0378194003
C  C27  1  0.22500000  0.10900000  0.42500000  1.0 0.0378194003
C  C28  1  0.77500000  0.89100000  0.42500000  1.0 0.0378194003
C  C29  1  0.39100000  0.72500000  0.07500000  1.0 0.0378194003
C  C30  1  0.60900000  0.27500000  0.07500000  1.0 0.0378194003
C  C31  1  0.72500000  0.60900000  0.92500000  1.0 0.0378194003
C  C32  1  0.27500000  0.39100000  0.92500000  1.0 0.0378194003
C  C33  1  0.98950000  0.27690000  0.78870000  1.0 0.157942864
C  C34  1  0.01050000  0.72310000  0.78870000  1.0 0.157942864
C  C35  1  0.27690000  0.01050000  0.21130000  1.0 0.157942864
C  C36  1  0.72310000  0.98950000  0.21130000  1.0 0.157942864
C  C37  1  0.48950000  0.77690000  0.28870000  1.0 0.157942864
C  C38  1  0.51050000  0.22310000  0.28870000  1.0 0.157942864
C  C39  1  0.77690000  0.51050000  0.71130000  1.0 0.157942864
C  C40  1  0.22310000  0.48950000  0.71130000  1.0 0.157942864
C  C41  1  0.52160000  0.31440000  0.68800000  0.5 0.3178510208
C  C42  1  0.47840000  0.68560000  0.68800000  0.5 0.3178510208
C  C43  1  0.31440000  0.47840000  0.31200000  0.5 0.3178510208
C  C44  1  0.68560000  0.52160000  0.31200000  0.5 0.3178510208
C  C45  1  0.02160000  0.81440000  0.18800000  0.5 0.3178510208
C  C46  1  0.97840000  0.18560000  0.18800000  0.5 0.3178510208
C  C47  1  0.81440000  0.97840000  0.81200000  0.5 0.3178510208
C  C48  1  0.18560000  0.02160000  0.81200000  0.5 0.3178510208
C  C49  1  0.43020000  0.33400000  0.64200000  0.5 -0.2046593066
C  C50  1  0.56980000  0.66600000  0.64200000  0.5 -0.2046593066
C  C51  1  0.33400000  0.56980000  0.35800000  0.5 -0.2046593066
C  C52  1  0.66600000  0.43020000  0.35800000  0.5 -0.2046593066
C  C53  1  0.93020000  0.83400000  0.14200000  0.5 -0.2046593066
C  C54  1  0.06980000  0.16600000  0.14200000  0.5 -0.2046593066
C  C55  1  0.83400000  0.06980000  0.85800000  0.5 -0.2046593066
C  C56  1  0.16600000  0.93020000  0.85800000  0.5 -0.2046593066
C  C57  1  0.51770000  0.36780000  0.69100000  0.5 0.2894798953
C  C58  1  0.48230000  0.63220000  0.69100000  0.5 0.2894798953
C  C59  1  0.36780000  0.48230000  0.30900000  0.5 0.2894798953
C  C60  1  0.63220000  0.51770000  0.30900000  0.5 0.2894798953
C  C61  1  0.01770000  0.86780000  0.19100000  0.5 0.2894798953
C  C62  1  0.98230000  0.13220000  0.19100000  0.5 0.2894798953
C  C63  1  0.86780000  0.98230000  0.80900000  0.5 0.2894798953
C  C64  1  0.13220000  0.01770000  0.80900000  0.5 0.2894798953
C  C65  1  0.43510000  0.37200000  0.61300000  0.5 -0.2395214226
C  C66  1  0.56490000  0.62800000  0.61300000  0.5 -0.2395214226
C  C67  1  0.37200000  0.56490000  0.38700000  0.5 -0.2395214226
C  C68  1  0.62800000  0.43510000  0.38700000  0.5 -0.2395214226
C  C69  1  0.93510000  0.87200000  0.11300000  0.5 -0.2395214226
C  C70  1  0.06490000  0.12800000  0.11300000  0.5 -0.2395214226
C  C71  1  0.87200000  0.06490000  0.88700000  0.5 -0.2395214226
C  C72  1  0.12800000  0.93510000  0.88700000  0.5 -0.2395214226
N  N1  1  0.76760000  0.28230000  0.67300000  1.0 -0.4696711163
N  N2  1  0.23240000  0.71770000  0.67300000  1.0 -0.4696711163
N  N3  1  0.28230000  0.23240000  0.32700000  1.0 -0.4696711163
N  N4  1  0.71770000  0.76760000  0.32700000  1.0 -0.4696711163
N  N5  1  0.26760000  0.78230000  0.17300000  1.0 -0.4696711163
N  N6  1  0.73240000  0.21770000  0.17300000  1.0 -0.4696711163
N  N7  1  0.78230000  0.73240000  0.82700000  1.0 -0.4696711163
N  N8  1  0.21770000  0.26760000  0.82700000  1.0 -0.4696711163
N  N9  1  0.90580000  0.29930000  0.79710000  1.0 -0.3209816675
N  N10  1  0.09420000  0.70070000  0.79710000  1.0 -0.3209816675
N  N11  1  0.29930000  0.09420000  0.20290000  1.0 -0.3209816675
N  N12  1  0.70070000  0.90580000  0.20290000  1.0 -0.3209816675
N  N13  1  0.40580000  0.79930000  0.29710000  1.0 -0.3209816675
N  N14  1  0.59420000  0.20070000  0.29710000  1.0 -0.3209816675
N  N15  1  0.79930000  0.59420000  0.70290000  1.0 -0.3209816675
N  N16  1  0.20070000  0.40580000  0.70290000  1.0 -0.3209816675
N  N17  1  0.02910000  0.23140000  0.68470000  1.0 -0.3901866238
N  N18  1  0.97090000  0.76860000  0.68470000  1.0 -0.3901866238
N  N19  1  0.23140000  0.97090000  0.31530000  1.0 -0.3901866238
N  N20  1  0.76860000  0.02910000  0.31530000  1.0 -0.3901866238
N  N21  1  0.52910000  0.73140000  0.18470000  1.0 -0.3901866238
N  N22  1  0.47090000  0.26860000  0.18470000  1.0 -0.3901866238
N  N23  1  0.73140000  0.47090000  0.81530000  1.0 -0.3901866238
N  N24  1  0.26860000  0.52910000  0.81530000  1.0 -0.3901866238
N  N25  1  0.82100000  0.20760000  0.48670000  1.0 -0.3804583896
N  N26  1  0.17900000  0.79240000  0.48670000  1.0 -0.3804583896
N  N27  1  0.20760000  0.17900000  0.51330000  1.0 -0.3804583896
N  N28  1  0.79240000  0.82100000  0.51330000  1.0 -0.3804583896
N  N29  1  0.32100000  0.70760000  0.98670000  1.0 -0.3804583896
N  N30  1  0.67900000  0.29240000  0.98670000  1.0 -0.3804583896
N  N31  1  0.70760000  0.67900000  0.01330000  1.0 -0.3804583896
N  N32  1  0.29240000  0.32100000  0.01330000  1.0 -0.3804583896
O  O1  1  0.52200000  0.46660000  0.93200000  0.5 -0.0681538059
O  O2  1  0.47800000  0.53340000  0.93200000  0.5 -0.0681538059
O  O3  1  0.46660000  0.47800000  0.06800000  0.5 -0.0681538059
O  O4  1  0.53340000  0.52200000  0.06800000  0.5 -0.0681538059
O  O5  1  0.02200000  0.96660000  0.43200000  0.5 -0.0761518377
O  O6  1  0.97800000  0.03340000  0.43200000  0.5 -0.0681538059
O  O7  1  0.96660000  0.97800000  0.56800000  0.5 -0.0761518377
O  O8  1  0.03340000  0.02200000  0.56800000  0.5 -0.0681538059
O  O9  1  0.54560000  0.23650000  0.71300000  0.5 -0.333612309
O  O10  1  0.45440000  0.76350000  0.71300000  0.5 -0.333612309
O  O11  1  0.23650000  0.45440000  0.28700000  0.5 -0.333612309
O  O12  1  0.76350000  0.54560000  0.28700000  0.5 -0.333612309
O  O13  1  0.04560000  0.73650000  0.21300000  0.5 -0.333612309
O  O14  1  0.95440000  0.26350000  0.21300000  0.5 -0.333612309
O  O15  1  0.73650000  0.95440000  0.78700000  0.5 -0.333612309
O  O16  1  0.26350000  0.04560000  0.78700000  0.5 -0.333612309
O  O17  1  0.57780000  0.37530000  0.70900000  0.5 0.008997538
O  O18  1  0.42220000  0.62470000  0.70900000  0.5 0.008997538
O  O19  1  0.37530000  0.42220000  0.29100000  0.5 0.008997538
O  O20  1  0.62470000  0.57780000  0.29100000  0.5 0.008997538
O  O21  1  0.07780000  0.87530000  0.20900000  0.5 0.008997538
O  O22  1  0.92220000  0.12470000  0.20900000  0.5 0.008997538
O  O23  1  0.87530000  0.92220000  0.79100000  0.5 0.008997538
O  O24  1  0.12470000  0.07780000  0.79100000  0.5 0.008997538
O  O25  1  0.58170000  0.32490000  0.65000000  0.5 -0.0159870465
O  O26  1  0.41830000  0.67510000  0.65000000  0.5 -0.0159870465
O  O27  1  0.32490000  0.41830000  0.35000000  0.5 -0.0159870465
O  O28  1  0.67510000  0.58170000  0.35000000  0.5 -0.0159870465
O  O29  1  0.08170000  0.82490000  0.15000000  0.5 -0.0159870465
O  O30  1  0.91830000  0.17510000  0.15000000  0.5 -0.0159870465
O  O31  1  0.82490000  0.91830000  0.85000000  0.5 -0.0159870465
O  O32  1  0.17510000  0.08170000  0.85000000  0.5 -0.0159870465
O  O33  1  0.53270000  0.40590000  0.80100000  0.5 -0.1266658391
O  O34  1  0.46730000  0.59410000  0.80100000  0.5 -0.1266658391
O  O35  1  0.40590000  0.46730000  0.19900000  0.5 -0.1266658391
O  O36  1  0.59410000  0.53270000  0.19900000  0.5 -0.1266658391
O  O37  1  0.03270000  0.90590000  0.30100000  0.5 -0.1266658391
O  O38  1  0.96730000  0.09410000  0.30100000  0.5 -0.1266658391
O  O39  1  0.90590000  0.96730000  0.69900000  0.5 -0.1266658391
O  O40  1  0.09410000  0.03270000  0.69900000  0.5 -0.1266658391
