# DDEC6 charges by PACMAN v1.1 (https://github.com/mtap-research/PACMAN-charge/)
data_c9dt04305e2_2_FSR_pacman
_symmetry_space_group_name_H-M   'P 1'
_cell_length_a   11.69890000
_cell_length_b   15.37300000
_cell_length_c   18.34060000
_cell_angle_alpha   90.00000000
_cell_angle_beta   90.00000000
_cell_angle_gamma   90.00000000
_symmetry_Int_Tables_number   1
_chemical_formula_structural   ZnH2C27(NO2)2
_chemical_formula_sum   'Zn4 H8 C108 N8 O16'
_cell_volume   3298.50536741
_cell_formula_units_Z   4
loop_
 _symmetry_equiv_pos_site_id
 _symmetry_equiv_pos_as_xyz
  1  'x, y, z'
loop_
 _atom_site_type_symbol
 _atom_site_label
 _atom_site_symmetry_multiplicity
 _atom_site_fract_x
 _atom_site_fract_y
 _atom_site_fract_z
 _atom_site_occupancy
 _atom_site_charge
Zn  Zn1  1  0.75000000  0.00000000  0.92490000  1.0 0.8393146049
Zn  Zn2  1  0.75000000  0.00000000  0.76536000  1.0 0.8101772617
Zn  Zn3  1  0.25000000  0.00000000  0.07510000  1.0 0.8393146049
Zn  Zn4  1  0.25000000  0.00000000  0.23464000  1.0 0.8101772617
H  H1  1  0.58400000  0.00000000  0.04790000  1.0 0.1331915062
H  H2  1  0.91600000  0.00000000  0.04790000  1.0 0.1331915062
H  H3  1  0.57960000  0.00000000  0.17200000  1.0 0.1331915062
H  H4  1  0.92040000  0.00000000  0.17200000  1.0 0.1331915062
H  H5  1  0.41600000  0.00000000  0.95210000  1.0 0.1331915062
H  H6  1  0.08400000  0.00000000  0.95210000  1.0 0.1331915062
H  H7  1  0.42040000  0.00000000  0.82800000  1.0 0.1331915062
H  H8  1  0.07960000  0.00000000  0.82800000  1.0 0.1331915062
C  C1  1  0.60000000  0.12191000  0.84479000  1.0 0.5994510975
C  C2  1  0.90000000  0.87809000  0.84479000  1.0 0.5994510975
C  C3  1  0.60000000  0.87809000  0.84479000  1.0 0.5994510975
C  C4  1  0.90000000  0.12191000  0.84479000  1.0 0.5994510975
C  C5  1  0.52190000  0.19885000  0.84337000  1.0 -0.0112831683
C  C6  1  0.97810000  0.80115000  0.84337000  1.0 -0.0112831683
C  C7  1  0.52190000  0.80115000  0.84337000  1.0 -0.0112831683
C  C8  1  0.97810000  0.19885000  0.84337000  1.0 -0.0112831683
C  C9  1  0.65300000  0.00000000  0.07310000  1.0 0.0854233529
C  C10  1  0.84700000  0.00000000  0.07310000  1.0 0.0854233529
C  C11  1  0.64950000  0.00000000  0.14790000  1.0 -0.1726119194
C  C12  1  0.85050000  0.00000000  0.14790000  1.0 -0.1726119194
C  C13  1  0.75000000  0.00000000  0.18720000  1.0 0.1494674932
C  C14  1  0.75000000  0.00000000  0.26870000  1.0 -0.0112831683
C  C15  1  0.65500000  0.00000000  0.30670000  1.0 -0.0112831683
C  C16  1  0.84500000  0.00000000  0.30670000  1.0 -0.0112831683
C  C17  1  0.66200000  0.96660000  0.38330000  1.0 0.0107008329
C  C18  1  0.83800000  0.03340000  0.38330000  1.0 0.0107008329
C  C19  1  0.66200000  0.03340000  0.38330000  1.0 0.0107008329
C  C20  1  0.83800000  0.96660000  0.38330000  1.0 0.0107008329
C  C21  1  0.75000000  0.00000000  0.42090000  1.0 0.0189290595
C  C22  1  0.67580000  0.04810000  0.61600000  1.0 0.0526334111
C  C23  1  0.82420000  0.95190000  0.61600000  1.0 0.0526334111
C  C24  1  0.67580000  0.95190000  0.61600000  1.0 0.0526334111
C  C25  1  0.82420000  0.04810000  0.61600000  1.0 0.0526334111
C  C26  1  0.67350000  0.04760000  0.54050000  1.0 -0.0573668891
C  C27  1  0.82650000  0.95240000  0.54050000  1.0 -0.0573668891
C  C28  1  0.67350000  0.95240000  0.54050000  1.0 -0.0573668891
C  C29  1  0.82650000  0.04760000  0.54050000  1.0 -0.0573668891
C  C30  1  0.75000000  0.00000000  0.50120000  1.0 0.0728097547
C  C31  1  0.38010000  0.34448000  0.84122000  1.0 0.0444748055
C  C32  1  0.11990000  0.65552000  0.84122000  1.0 0.0444748055
C  C33  1  0.38010000  0.65552000  0.84122000  1.0 0.0444748055
C  C34  1  0.11990000  0.34448000  0.84122000  1.0 0.0444748055
C  C35  1  0.30980000  0.42507000  0.84009000  1.0 0.1625007119
C  C36  1  0.19020000  0.57493000  0.84009000  1.0 0.1625007119
C  C37  1  0.30980000  0.57493000  0.84009000  1.0 0.1625007119
C  C38  1  0.19020000  0.42507000  0.84009000  1.0 0.1625007119
C  C71  1  0.40000000  0.12191000  0.15521000  1.0 0.5994510975
C  C72  1  0.10000000  0.87809000  0.15521000  1.0 0.5994510975
C  C73  1  0.40000000  0.87809000  0.15521000  1.0 0.5994510975
C  C74  1  0.10000000  0.12191000  0.15521000  1.0 0.5994510975
C  C75  1  0.47810000  0.19885000  0.15663000  1.0 -0.0112831683
C  C76  1  0.02190000  0.80115000  0.15663000  1.0 -0.0112831683
C  C77  1  0.47810000  0.80115000  0.15663000  1.0 -0.0112831683
C  C78  1  0.02190000  0.19885000  0.15663000  1.0 -0.0112831683
C  C79  1  0.34700000  0.00000000  0.92690000  1.0 0.0854233529
C  C80  1  0.15300000  0.00000000  0.92690000  1.0 0.0854233529
C  C81  1  0.35050000  0.00000000  0.85210000  1.0 -0.1726119194
C  C82  1  0.14950000  0.00000000  0.85210000  1.0 -0.1726119194
C  C83  1  0.25000000  0.00000000  0.81280000  1.0 0.1494674932
C  C84  1  0.25000000  0.00000000  0.73130000  1.0 -0.0112831683
C  C85  1  0.34500000  0.00000000  0.69330000  1.0 -0.0112831683
C  C86  1  0.15500000  0.00000000  0.69330000  1.0 -0.0112831683
C  C87  1  0.33800000  0.96660000  0.61670000  1.0 0.0107008329
C  C88  1  0.16200000  0.03340000  0.61670000  1.0 0.0107008329
C  C89  1  0.33800000  0.03340000  0.61670000  1.0 0.0107008329
C  C90  1  0.16200000  0.96660000  0.61670000  1.0 0.0107008329
C  C91  1  0.25000000  0.00000000  0.57910000  1.0 0.0189290595
C  C92  1  0.32420000  0.04810000  0.38400000  1.0 0.0526334111
C  C93  1  0.17580000  0.95190000  0.38400000  1.0 0.0526334111
C  C94  1  0.32420000  0.95190000  0.38400000  1.0 0.0526334111
C  C95  1  0.17580000  0.04810000  0.38400000  1.0 0.0526334111
C  C96  1  0.32650000  0.04760000  0.45950000  1.0 -0.0573668891
C  C97  1  0.17350000  0.95240000  0.45950000  1.0 -0.0573668891
C  C98  1  0.32650000  0.95240000  0.45950000  1.0 -0.0573668891
C  C99  1  0.17350000  0.04760000  0.45950000  1.0 -0.0573668891
C  C100  1  0.25000000  0.00000000  0.49880000  1.0 0.0728097547
C  C101  1  0.61990000  0.34448000  0.15878000  1.0 0.0444748055
C  C102  1  0.88010000  0.65552000  0.15878000  1.0 0.0444748055
C  C103  1  0.61990000  0.65552000  0.15878000  1.0 0.0444748055
C  C104  1  0.88010000  0.34448000  0.15878000  1.0 0.0444748055
C  C105  1  0.69020000  0.42507000  0.15991000  1.0 0.1625007119
C  C106  1  0.80980000  0.57493000  0.15991000  1.0 0.1625007119
C  C107  1  0.69020000  0.57493000  0.15991000  1.0 0.1625007119
C  C108  1  0.80980000  0.42507000  0.15991000  1.0 0.1625007119
C  C39  1  0.44280000  0.21470000  0.89950000  0.5 -0.0112831683
C  C40  1  0.05720000  0.78530000  0.89950000  0.5 -0.0112831683
C  C41  1  0.44280000  0.78530000  0.89950000  0.5 -0.0112831683
C  C42  1  0.05720000  0.21470000  0.89950000  0.5 -0.0112831683
C  C43  1  0.44500000  0.21180000  0.78870000  0.5 -0.0019726259
C  C44  1  0.05500000  0.78820000  0.78870000  0.5 -0.0019726259
C  C45  1  0.44500000  0.78820000  0.78870000  0.5 -0.0019726259
C  C46  1  0.05500000  0.21180000  0.78870000  0.5 -0.0019726259
C  C47  1  0.37120000  0.28700000  0.89540000  0.5 -0.0573668891
C  C48  1  0.12880000  0.71300000  0.89540000  0.5 -0.0573668891
C  C49  1  0.37120000  0.71300000  0.89540000  0.5 -0.0573668891
C  C50  1  0.12880000  0.28700000  0.89540000  0.5 -0.0573668891
C  C51  1  0.37290000  0.28330000  0.79030000  0.5 -0.0673999015
C  C52  1  0.12710000  0.71670000  0.79030000  0.5 -0.0673999015
C  C53  1  0.37290000  0.71670000  0.79030000  0.5 -0.0673999015
C  C54  1  0.12710000  0.28330000  0.79030000  0.5 -0.0673999015
C  C55  1  0.52900000  0.26000000  0.90140000  0.5 -0.030785171
C  C56  1  0.97100000  0.74000000  0.90140000  0.5 -0.030785171
C  C57  1  0.52900000  0.74000000  0.90140000  0.5 -0.030785171
C  C58  1  0.97100000  0.26000000  0.90140000  0.5 -0.030785171
C  C59  1  0.52340000  0.25480000  0.78350000  0.5 0.0107008329
C  C60  1  0.97660000  0.74520000  0.78350000  0.5 0.0107008329
C  C61  1  0.52340000  0.74520000  0.78350000  0.5 0.0107008329
C  C62  1  0.97660000  0.25480000  0.78350000  0.5 0.0107008329
C  C63  1  0.46000000  0.33230000  0.90070000  0.5 -0.017997916
C  C64  1  0.04000000  0.66770000  0.90070000  0.5 -0.017997916
C  C65  1  0.46000000  0.66770000  0.90070000  0.5 -0.017997916
C  C66  1  0.04000000  0.33230000  0.90070000  0.5 -0.017997916
C  C67  1  0.45580000  0.32850000  0.78190000  0.5 -0.017997916
C  C68  1  0.04420000  0.67150000  0.78190000  0.5 -0.017997916
C  C69  1  0.45580000  0.67150000  0.78190000  0.5 -0.017997916
C  C70  1  0.04420000  0.32850000  0.78190000  0.5 -0.017997916
C  C109  1  0.55720000  0.21470000  0.10050000  0.5 -0.0112831683
C  C110  1  0.94280000  0.78530000  0.10050000  0.5 -0.0112831683
C  C111  1  0.55720000  0.78530000  0.10050000  0.5 -0.0112831683
C  C112  1  0.94280000  0.21470000  0.10050000  0.5 -0.0112831683
C  C113  1  0.55500000  0.21180000  0.21130000  0.5 -0.0019726259
C  C114  1  0.94500000  0.78820000  0.21130000  0.5 -0.0019726259
C  C115  1  0.55500000  0.78820000  0.21130000  0.5 -0.0019726259
C  C116  1  0.94500000  0.21180000  0.21130000  0.5 -0.0019726259
C  C117  1  0.62880000  0.28700000  0.10460000  0.5 -0.0573668891
C  C118  1  0.87120000  0.71300000  0.10460000  0.5 -0.0573668891
C  C119  1  0.62880000  0.71300000  0.10460000  0.5 -0.0573668891
C  C120  1  0.87120000  0.28700000  0.10460000  0.5 -0.0573668891
C  C121  1  0.62710000  0.28330000  0.20970000  0.5 -0.0673999015
C  C122  1  0.87290000  0.71670000  0.20970000  0.5 -0.0673999015
C  C123  1  0.62710000  0.71670000  0.20970000  0.5 -0.0673999015
C  C124  1  0.87290000  0.28330000  0.20970000  0.5 -0.0673999015
C  C125  1  0.47100000  0.26000000  0.09860000  0.5 -0.030785171
C  C126  1  0.02900000  0.74000000  0.09860000  0.5 -0.030785171
C  C127  1  0.47100000  0.74000000  0.09860000  0.5 -0.030785171
C  C128  1  0.02900000  0.26000000  0.09860000  0.5 -0.030785171
C  C129  1  0.47660000  0.25480000  0.21650000  0.5 0.0107008329
C  C130  1  0.02340000  0.74520000  0.21650000  0.5 0.0107008329
C  C131  1  0.47660000  0.74520000  0.21650000  0.5 0.0107008329
C  C132  1  0.02340000  0.25480000  0.21650000  0.5 0.0107008329
C  C133  1  0.54000000  0.33230000  0.09930000  0.5 -0.017997916
C  C134  1  0.96000000  0.66770000  0.09930000  0.5 -0.017997916
C  C135  1  0.54000000  0.66770000  0.09930000  0.5 -0.017997916
C  C136  1  0.96000000  0.33230000  0.09930000  0.5 -0.017997916
C  C137  1  0.54420000  0.32850000  0.21810000  0.5 -0.017997916
C  C138  1  0.95580000  0.67150000  0.21810000  0.5 -0.017997916
C  C139  1  0.54420000  0.67150000  0.21810000  0.5 -0.017997916
C  C140  1  0.95580000  0.32850000  0.21810000  0.5 -0.017997916
N  N1  1  0.75000000  0.00000000  0.65450000  1.0 -0.0480116673
N  N2  1  0.75000000  0.00000000  0.03430000  1.0 -0.2033888746
N  N3  1  0.36800000  0.50000000  0.83980000  1.0 -0.230541547
N  N4  1  0.13200000  0.50000000  0.83980000  1.0 -0.230541547
N  N5  1  0.25000000  0.00000000  0.34550000  1.0 -0.0480116673
N  N6  1  0.25000000  0.00000000  0.96570000  1.0 -0.2033888746
N  N7  1  0.63200000  0.50000000  0.16020000  1.0 -0.230541547
N  N8  1  0.86800000  0.50000000  0.16020000  1.0 -0.230541547
O  O1  1  0.63080000  0.09236000  0.90417000  1.0 -0.4872184593
O  O2  1  0.86920000  0.90764000  0.90417000  1.0 -0.4872184593
O  O3  1  0.63080000  0.90764000  0.90417000  1.0 -0.4872184593
O  O4  1  0.86920000  0.09236000  0.90417000  1.0 -0.4872184593
O  O5  1  0.63090000  0.09227000  0.78488000  1.0 -0.4954780686
O  O6  1  0.86910000  0.90773000  0.78488000  1.0 -0.4954780686
O  O7  1  0.63090000  0.90773000  0.78488000  1.0 -0.4954780686
O  O8  1  0.86910000  0.09227000  0.78488000  1.0 -0.4954780686
O  O9  1  0.36920000  0.09236000  0.09583000  1.0 -0.4872184593
O  O10  1  0.13080000  0.90764000  0.09583000  1.0 -0.4872184593
O  O11  1  0.36920000  0.90764000  0.09583000  1.0 -0.4872184593
O  O12  1  0.13080000  0.09236000  0.09583000  1.0 -0.4872184593
O  O13  1  0.36910000  0.09227000  0.21512000  1.0 -0.4954780686
O  O14  1  0.13090000  0.90773000  0.21512000  1.0 -0.4954780686
O  O15  1  0.36910000  0.90773000  0.21512000  1.0 -0.4954780686
O  O16  1  0.13090000  0.09227000  0.21512000  1.0 -0.4954780686
