# DDEC6 charges by PACMAN v1.1 (https://github.com/mtap-research/PACMAN-charge/)
data_2021[Zn][nan]3[FSR]4
_chemical_formula_sum              "Zn12 H44 C112 S8 O64"
_cell_length_a       16.7397
_cell_length_b       16.9329
_cell_length_c       24.8806
_cell_angle_alpha    90
_cell_angle_beta     90
_cell_angle_gamma    90

_symmetry_space_group_name_H-M    "P 1"
_symmetry_Int_Tables_number       1

loop_
  _symmetry_equiv_pos_as_xyz
  'x, y, z'

loop_
  _atom_site_type_symbol
  _atom_site_label
  _atom_site_symmetry_multiplicity
  _atom_site_fract_x
  _atom_site_fract_y
  _atom_site_fract_z
  _atom_site_occupancy
  _atom_site_charge
Zn  Zn1       1.0  0.13719  0.46774  0.10423  1.0000 1.0055636742
Zn  Zn2       1.0  0.86281  0.03226  0.60423  1.0000 1.0055636742
Zn  Zn3       1.0  0.63719  0.53226  0.89577  1.0000 1.0055636742
Zn  Zn4       1.0  0.36281  0.96774  0.39577  1.0000 1.0055636742
Zn  Zn5       1.0  0.86281  0.53226  0.89577  1.0000 1.0055636742
Zn  Zn6       1.0  0.13719  0.96774  0.39577  1.0000 1.0055636742
Zn  Zn7       1.0  0.36281  0.46774  0.10423  1.0000 1.0055636742
Zn  Zn8       1.0  0.63719  0.03226  0.60423  1.0000 1.0055636742
Zn  Zn9       1.0  0.75000  0.68197  0.92082  1.0000 1.1024902664
Zn  Zn10      1.0  0.25000  0.81803  0.42082  1.0000 1.1024902664
Zn  Zn11      1.0  0.25000  0.31803  0.07918  1.0000 1.1024902664
Zn  Zn12      1.0  0.75000  0.18197  0.57918  1.0000 1.1024902664
H   H1        1.0  0.90340  0.76600  0.04220  1.0000 0.1603525185
H   H2        1.0  0.01710  0.55690  0.03500  1.0000 0.1406909727
H   H3        1.0  0.14290  0.63900  0.20460  1.0000 0.1406909727
H   H4        1.0  0.03930  0.88840  0.24300  1.0000 0.1539802269
H   H5        1.0  0.17410  0.70170  0.28410  1.0000 0.1264682465
H   H6        1.0  0.09660  0.73400  0.54220  1.0000 0.1603525185
H   H7        1.0  0.98290  0.94310  0.53500  1.0000 0.1406909727
H   H8        1.0  0.85710  0.86100  0.70460  1.0000 0.1406909727
H   H9        1.0  0.96070  0.61160  0.74300  1.0000 0.1539802269
H   H10       1.0  0.82590  0.79830  0.78410  1.0000 0.1264682465
H   H11       1.0  0.40340  0.23400  0.95780  1.0000 0.1603525185
H   H12       1.0  0.51710  0.44310  0.96500  1.0000 0.1406909727
H   H13       1.0  0.64290  0.36100  0.79540  1.0000 0.1406909727
H   H14       1.0  0.53930  0.11160  0.75700  1.0000 0.1539802269
H   H15       1.0  0.67410  0.29830  0.71590  1.0000 0.1264682465
H   H16       1.0  0.59660  0.26600  0.45780  1.0000 0.1603525185
H   H17       1.0  0.48290  0.05690  0.46500  1.0000 0.1406909727
H   H18       1.0  0.35710  0.13900  0.29540  1.0000 0.1406909727
H   H19       1.0  0.46070  0.38840  0.25700  1.0000 0.1539802269
H   H20       1.0  0.32590  0.20170  0.21590  1.0000 0.1264682465
H   H21       1.0  0.09660  0.23400  0.95780  1.0000 0.1603525185
H   H22       1.0  0.98290  0.44310  0.96500  1.0000 0.1406909727
H   H23       1.0  0.85710  0.36100  0.79540  1.0000 0.1406909727
H   H24       1.0  0.96070  0.11160  0.75700  1.0000 0.1539802269
H   H25       1.0  0.82590  0.29830  0.71590  1.0000 0.1264682465
H   H26       1.0  0.90340  0.26600  0.45780  1.0000 0.1603525185
H   H27       1.0  0.01710  0.05690  0.46500  1.0000 0.1406909727
H   H28       1.0  0.14290  0.13900  0.29540  1.0000 0.1406909727
H   H29       1.0  0.03930  0.38840  0.25700  1.0000 0.1539802269
H   H30       1.0  0.17410  0.20170  0.21590  1.0000 0.1264682465
H   H31       1.0  0.59660  0.76600  0.04220  1.0000 0.1603525185
H   H32       1.0  0.48290  0.55690  0.03500  1.0000 0.1406909727
H   H33       1.0  0.35710  0.63900  0.20460  1.0000 0.1406909727
H   H34       1.0  0.46070  0.88840  0.24300  1.0000 0.1539802269
H   H35       1.0  0.32590  0.70170  0.28410  1.0000 0.1264682465
H   H36       1.0  0.40340  0.73400  0.54220  1.0000 0.1603525185
H   H37       1.0  0.51710  0.94310  0.53500  1.0000 0.1406909727
H   H38       1.0  0.64290  0.86100  0.70460  1.0000 0.1406909727
H   H39       1.0  0.53930  0.61160  0.74300  1.0000 0.1539802269
H   H40       1.0  0.67410  0.79830  0.78410  1.0000 0.1264682465
H   H41       1.0  0.75000  0.81400  0.89760  1.0000 0.4139824264
H   H42       1.0  0.25000  0.68600  0.39760  1.0000 0.4139824264
H   H43       1.0  0.25000  0.18600  0.10240  1.0000 0.4139824264
H   H44       1.0  0.75000  0.31400  0.60240  1.0000 0.4139824264
C   C1        1.0  0.90131  0.63461  0.98440  1.0000 0.6083613836
C   C2        1.0  0.95173  0.65631  0.03225  1.0000 0.0322235214
C   C3        1.0  0.93933  0.72971  0.05637  1.0000 -0.1139093859
C   C4        1.0  0.00803  0.60433  0.05280  1.0000 -0.2177797987
C   C5        1.0  0.98203  0.74591  0.10152  1.0000 -0.0548476002
C   C6        1.0  0.05237  0.62123  0.10015  1.0000 0.3532860183
C   C7        1.0  0.03689  0.69431  0.12523  1.0000 -0.0611496655
C   C8        1.0  0.06996  0.72444  0.17618  1.0000 0.0797788553
C   C9        1.0  0.04078  0.79932  0.18947  1.0000 -0.0356833708
C   C10       1.0  0.12137  0.68838  0.21219  1.0000 -0.1139093859
C   C11       1.0  0.05977  0.83844  0.23587  1.0000 -0.0911895766
C   C12       1.0  0.14038  0.72666  0.25970  1.0000 -0.0825489595
C   C13       1.0  0.11070  0.80100  0.27209  1.0000 -0.0001872185
C   C14       1.0  0.13356  0.84169  0.32340  1.0000 0.6038244271
C   C15       1.0  0.09869  0.86539  0.48440  1.0000 0.6083613836
C   C16       1.0  0.04827  0.84369  0.53225  1.0000 0.0322235214
C   C17       1.0  0.06067  0.77029  0.55637  1.0000 -0.1139093859
C   C18       1.0  0.99197  0.89567  0.55280  1.0000 -0.2177797987
C   C19       1.0  0.01797  0.75409  0.60152  1.0000 -0.0611496655
C   C20       1.0  0.94763  0.87877  0.60015  1.0000 0.3532860183
C   C21       1.0  0.96311  0.80569  0.62523  1.0000 -0.0611496655
C   C22       1.0  0.93004  0.77556  0.67618  1.0000 0.0797788553
C   C23       1.0  0.95922  0.70068  0.68947  1.0000 -0.0345463178
C   C24       1.0  0.87863  0.81162  0.71219  1.0000 -0.1139093859
C   C25       1.0  0.94023  0.66156  0.73587  1.0000 -0.0911895766
C   C26       1.0  0.85962  0.77334  0.75970  1.0000 -0.0825489595
C   C27       1.0  0.88930  0.69900  0.77209  1.0000 0.0008308385
C   C28       1.0  0.86644  0.65831  0.82340  1.0000 0.6038244271
C   C29       1.0  0.40131  0.36539  0.01560  1.0000 0.6083613836
C   C30       1.0  0.45173  0.34369  0.96775  1.0000 0.0322235214
C   C31       1.0  0.43933  0.27029  0.94363  1.0000 -0.1139093859
C   C32       1.0  0.50803  0.39567  0.94720  1.0000 -0.2177797987
C   C33       1.0  0.48203  0.25409  0.89848  1.0000 -0.0548476002
C   C34       1.0  0.55237  0.37877  0.89985  1.0000 0.3532860183
C   C35       1.0  0.53689  0.30569  0.87477  1.0000 -0.0611496655
C   C36       1.0  0.56996  0.27556  0.82382  1.0000 0.0797788553
C   C37       1.0  0.54078  0.20068  0.81053  1.0000 -0.0356833708
C   C38       1.0  0.62137  0.31162  0.78781  1.0000 -0.1139093859
C   C39       1.0  0.55977  0.16156  0.76413  1.0000 -0.0911895766
C   C40       1.0  0.64038  0.27334  0.74030  1.0000 -0.0825489595
C   C41       1.0  0.61070  0.19900  0.72791  1.0000 0.0008308385
C   C42       1.0  0.63356  0.15831  0.67660  1.0000 0.6038244271
C   C43       1.0  0.59869  0.13461  0.51560  1.0000 0.6083613836
C   C44       1.0  0.54827  0.15631  0.46775  1.0000 0.0322235214
C   C45       1.0  0.56067  0.22971  0.44363  1.0000 -0.1139093859
C   C46       1.0  0.49197  0.10433  0.44720  1.0000 -0.2177797987
C   C47       1.0  0.51797  0.24591  0.39848  1.0000 -0.0611496655
C   C48       1.0  0.44763  0.12123  0.39985  1.0000 0.3532860183
C   C49       1.0  0.46311  0.19431  0.37477  1.0000 -0.0611496655
C   C50       1.0  0.43004  0.22444  0.32382  1.0000 0.0797788553
C   C51       1.0  0.45922  0.29932  0.31053  1.0000 -0.0356833708
C   C52       1.0  0.37863  0.18838  0.28781  1.0000 -0.1139093859
C   C53       1.0  0.44023  0.33844  0.26413  1.0000 -0.0911895766
C   C54       1.0  0.35962  0.22666  0.24030  1.0000 -0.0825489595
C   C55       1.0  0.38930  0.30100  0.22791  1.0000 0.0008308385
C   C56       1.0  0.36644  0.34169  0.17660  1.0000 0.6038244271
C   C57       1.0  0.09869  0.36539  0.01560  1.0000 0.6083613836
C   C58       1.0  0.04827  0.34369  0.96775  1.0000 0.0322235214
C   C59       1.0  0.06067  0.27029  0.94363  1.0000 -0.1139093859
C   C60       1.0  0.99197  0.39567  0.94720  1.0000 -0.2177797987
C   C61       1.0  0.01797  0.25409  0.89848  1.0000 -0.0611496655
C   C62       1.0  0.94763  0.37877  0.89985  1.0000 0.3532860183
C   C63       1.0  0.96311  0.30569  0.87477  1.0000 -0.0611496655
C   C64       1.0  0.93004  0.27556  0.82382  1.0000 0.0797788553
C   C65       1.0  0.95922  0.20068  0.81053  1.0000 -0.0345463178
C   C66       1.0  0.87863  0.31162  0.78781  1.0000 -0.1139093859
C   C67       1.0  0.94023  0.16156  0.76413  1.0000 -0.0911895766
C   C68       1.0  0.85962  0.27334  0.74030  1.0000 -0.0825489595
C   C69       1.0  0.88930  0.19900  0.72791  1.0000 0.0008308385
C   C70       1.0  0.86644  0.15831  0.67660  1.0000 0.6038244271
C   C71       1.0  0.90131  0.13461  0.51560  1.0000 0.6083613836
C   C72       1.0  0.95173  0.15631  0.46775  1.0000 0.0322235214
C   C73       1.0  0.93933  0.22971  0.44363  1.0000 -0.1139093859
C   C74       1.0  0.00803  0.10433  0.44720  1.0000 -0.2177797987
C   C75       1.0  0.98203  0.24591  0.39848  1.0000 -0.0548476002
C   C76       1.0  0.05237  0.12123  0.39985  1.0000 0.3532860183
C   C77       1.0  0.03689  0.19431  0.37477  1.0000 -0.0611496655
C   C78       1.0  0.06996  0.22444  0.32382  1.0000 0.0797788553
C   C79       1.0  0.04078  0.29932  0.31053  1.0000 -0.0356833708
C   C80       1.0  0.12137  0.18838  0.28781  1.0000 -0.1139093859
C   C81       1.0  0.05977  0.33844  0.26413  1.0000 -0.0911895766
C   C82       1.0  0.14038  0.22666  0.24030  1.0000 -0.0825489595
C   C83       1.0  0.11070  0.30100  0.22791  1.0000 0.0008308385
C   C84       1.0  0.13356  0.34169  0.17660  1.0000 0.6038244271
C   C85       1.0  0.59869  0.63461  0.98440  1.0000 0.6083613836
C   C86       1.0  0.54827  0.65631  0.03225  1.0000 0.0322235214
C   C87       1.0  0.56067  0.72971  0.05637  1.0000 -0.1139093859
C   C88       1.0  0.49197  0.60433  0.05280  1.0000 -0.2177797987
C   C89       1.0  0.51797  0.74591  0.10152  1.0000 -0.0611496655
C   C90       1.0  0.44763  0.62123  0.10015  1.0000 0.3532860183
C   C91       1.0  0.46311  0.69431  0.12523  1.0000 -0.0611496655
C   C92       1.0  0.43004  0.72444  0.17618  1.0000 0.0797788553
C   C93       1.0  0.45922  0.79932  0.18947  1.0000 -0.0356833708
C   C94       1.0  0.37863  0.68838  0.21219  1.0000 -0.1139093859
C   C95       1.0  0.44023  0.83844  0.23587  1.0000 -0.0911895766
C   C96       1.0  0.35962  0.72666  0.25970  1.0000 -0.0825489595
C   C97       1.0  0.38930  0.80100  0.27209  1.0000 0.0008308385
C   C98       1.0  0.36644  0.84169  0.32340  1.0000 0.6038244271
C   C99       1.0  0.40131  0.86539  0.48440  1.0000 0.6083613836
C   C100      1.0  0.45173  0.84369  0.53225  1.0000 0.0322235214
C   C101      1.0  0.43933  0.77029  0.55637  1.0000 -0.1139093859
C   C102      1.0  0.50803  0.89567  0.55280  1.0000 -0.2177797987
C   C103      1.0  0.48203  0.75409  0.60152  1.0000 -0.0611496655
C   C104      1.0  0.55237  0.87877  0.60015  1.0000 0.3532860183
C   C105      1.0  0.53689  0.80569  0.62523  1.0000 -0.0611496655
C   C106      1.0  0.56996  0.77556  0.67618  1.0000 0.0797788553
C   C107      1.0  0.54078  0.70068  0.68947  1.0000 -0.0356833708
C   C108      1.0  0.62137  0.81162  0.71219  1.0000 -0.1139093859
C   C109      1.0  0.55977  0.66156  0.73587  1.0000 -0.0911895766
C   C110      1.0  0.64038  0.77334  0.75970  1.0000 -0.0825489595
C   C111      1.0  0.61070  0.69900  0.77209  1.0000 0.0008308385
C   C112      1.0  0.63356  0.65831  0.82340  1.0000 0.6038244271
S   S1        1.0  0.97705  0.83494  0.13847  1.0000 0.9428352021
S   S2        1.0  0.02295  0.66506  0.63847  1.0000 0.9428352021
S   S3        1.0  0.47705  0.16506  0.86153  1.0000 0.9428352021
S   S4        1.0  0.52295  0.33494  0.36153  1.0000 0.9428352021
S   S5        1.0  0.02295  0.16506  0.86153  1.0000 0.9428352021
S   S6        1.0  0.97705  0.33494  0.36153  1.0000 0.9428352021
S   S7        1.0  0.52295  0.83494  0.13847  1.0000 0.9428352021
S   S8        1.0  0.47705  0.66506  0.63847  1.0000 0.9428352021
O   O1        1.0  0.84059  0.67489  0.97686  1.0000 -0.4800498569
O   O2        1.0  0.92460  0.57659  0.95621  1.0000 -0.5511225558
O   O3        1.0  0.16836  0.80194  0.35794  1.0000 -0.5236156381
O   O4        1.0  0.11483  0.91319  0.32790  1.0000 -0.5112503267
O   O5        1.0  0.10542  0.57317  0.12067  1.0000 -0.4800498569
O   O6        1.0  0.01450  0.89840  0.10908  1.0000 -0.4800498569
O   O7        1.0  0.89887  0.84947  0.15899  1.0000 -0.4595211617
O   O8        1.0  0.15941  0.82511  0.47686  1.0000 -0.4800498569
O   O9        1.0  0.07540  0.92341  0.45621  1.0000 -0.5511225558
O   O10       1.0  0.83164  0.69806  0.85794  1.0000 -0.5236156381
O   O11       1.0  0.88517  0.58681  0.82790  1.0000 -0.5112503267
O   O12       1.0  0.89458  0.92683  0.62067  1.0000 -0.4800498569
O   O13       1.0  0.98550  0.60160  0.60908  1.0000 -0.4800498569
O   O14       1.0  0.10113  0.65053  0.65899  1.0000 -0.4595211617
O   O15       1.0  0.34059  0.32511  0.02314  1.0000 -0.4800498569
O   O16       1.0  0.42460  0.42341  0.04379  1.0000 -0.5511225558
O   O17       1.0  0.66836  0.19806  0.64206  1.0000 -0.5236156381
O   O18       1.0  0.61483  0.08681  0.67210  1.0000 -0.5112503267
O   O19       1.0  0.60542  0.42683  0.87933  1.0000 -0.4800498569
O   O20       1.0  0.51450  0.10160  0.89092  1.0000 -0.4800498569
O   O21       1.0  0.39887  0.15053  0.84101  1.0000 -0.4595211617
O   O22       1.0  0.65941  0.17489  0.52314  1.0000 -0.4800498569
O   O23       1.0  0.57540  0.07659  0.54379  1.0000 -0.5511225558
O   O24       1.0  0.33164  0.30194  0.14206  1.0000 -0.5236156381
O   O25       1.0  0.38517  0.41319  0.17210  1.0000 -0.5112503267
O   O26       1.0  0.39458  0.07317  0.37933  1.0000 -0.4800498569
O   O27       1.0  0.48550  0.39840  0.39092  1.0000 -0.4800498569
O   O28       1.0  0.60113  0.34947  0.34101  1.0000 -0.4595211617
O   O29       1.0  0.15941  0.32511  0.02314  1.0000 -0.4800498569
O   O30       1.0  0.07540  0.42341  0.04379  1.0000 -0.5511225558
O   O31       1.0  0.83164  0.19806  0.64206  1.0000 -0.5236156381
O   O32       1.0  0.88517  0.08681  0.67210  1.0000 -0.5112503267
O   O33       1.0  0.89458  0.42683  0.87933  1.0000 -0.4800498569
O   O34       1.0  0.98550  0.10160  0.89092  1.0000 -0.4800498569
O   O35       1.0  0.10113  0.15053  0.84101  1.0000 -0.4595211617
O   O36       1.0  0.84059  0.17489  0.52314  1.0000 -0.4800498569
O   O37       1.0  0.92460  0.07659  0.54379  1.0000 -0.5511225558
O   O38       1.0  0.16836  0.30194  0.14206  1.0000 -0.5236156381
O   O39       1.0  0.11483  0.41319  0.17210  1.0000 -0.5112503267
O   O40       1.0  0.10542  0.07317  0.37933  1.0000 -0.4800498569
O   O41       1.0  0.01450  0.39840  0.39092  1.0000 -0.4800498569
O   O42       1.0  0.89887  0.34947  0.34101  1.0000 -0.4595211617
O   O43       1.0  0.65941  0.67489  0.97686  1.0000 -0.4800498569
O   O44       1.0  0.57540  0.57659  0.95621  1.0000 -0.5511225558
O   O45       1.0  0.33164  0.80194  0.35794  1.0000 -0.5236156381
O   O46       1.0  0.38517  0.91319  0.32790  1.0000 -0.5112503267
O   O47       1.0  0.39458  0.57317  0.12067  1.0000 -0.4800498569
O   O48       1.0  0.48550  0.89840  0.10908  1.0000 -0.4800498569
O   O49       1.0  0.60113  0.84947  0.15899  1.0000 -0.4595211617
O   O50       1.0  0.34059  0.82511  0.47686  1.0000 -0.4800498569
O   O51       1.0  0.42460  0.92341  0.45621  1.0000 -0.5511225558
O   O52       1.0  0.66836  0.69806  0.85794  1.0000 -0.5236156381
O   O53       1.0  0.61483  0.58681  0.82790  1.0000 -0.5112503267
O   O54       1.0  0.60542  0.92683  0.62067  1.0000 -0.4800498569
O   O55       1.0  0.51450  0.60160  0.60908  1.0000 -0.4800498569
O   O56       1.0  0.39887  0.65053  0.65899  1.0000 -0.4595211617
O   O57       1.0  0.75000  0.80217  0.93081  1.0000 -0.7820902861
O   O58       1.0  0.25000  0.69783  0.43081  1.0000 -0.7820902861
O   O59       1.0  0.25000  0.19783  0.06919  1.0000 -0.7820902861
O   O60       1.0  0.75000  0.30217  0.56919  1.0000 -0.7820902861
O   O61       1.0  0.25000  0.44821  0.08352  1.0000 -0.9112385608
O   O62       1.0  0.75000  0.05179  0.58352  1.0000 -0.9112385608
O   O63       1.0  0.75000  0.55179  0.91648  1.0000 -0.9112385608
O   O64       1.0  0.25000  0.94821  0.41648  1.0000 -0.9112385608
