# DDEC6 charges by PACMAN v1.1 (https://github.com/mtap-research/PACMAN-charge/)
data_c7cc06074b5_9_ASR_pacman
_symmetry_space_group_name_H-M   'P 1'
_cell_length_a   7.63580000
_cell_length_b   23.65000000
_cell_length_c   29.18480000
_cell_angle_alpha   90.00000000
_cell_angle_beta   90.00000000
_cell_angle_gamma   90.00000000
_symmetry_Int_Tables_number   1
_chemical_formula_structural   ZnH28C41S2N2(O2F3)2
_chemical_formula_sum   'Zn4 H112 C164 S8 N8 O16 F24'
_cell_volume   5270.38584662
_cell_formula_units_Z   4
loop_
 _symmetry_equiv_pos_site_id
 _symmetry_equiv_pos_as_xyz
  1  'x, y, z'
loop_
 _atom_site_type_symbol
 _atom_site_label
 _atom_site_symmetry_multiplicity
 _atom_site_fract_x
 _atom_site_fract_y
 _atom_site_fract_z
 _atom_site_occupancy
 _atom_site_charge
Zn  Zn1  1  0.58642000  0.96053000  0.76789000  1.0 0.7542695267
Zn  Zn2  1  0.91358000  0.03947000  0.26789000  1.0 0.7542695267
Zn  Zn3  1  0.08642000  0.53947000  0.23211000  1.0 0.7542695267
Zn  Zn4  1  0.41358000  0.46053000  0.73211000  1.0 0.7542695267
H  H1  1  0.73795000  0.06653000  0.72943000  1.0 0.1272541551
H  H2  1  0.76205000  0.93347000  0.22943000  1.0 0.1272541551
H  H3  1  0.23795000  0.43347000  0.27057000  1.0 0.1272541551
H  H4  1  0.26205000  0.56653000  0.77057000  1.0 0.1272541551
H  H5  1  0.55239000  0.04427000  0.31094000  1.0 0.1201879009
H  H6  1  0.94761000  0.95573000  0.81094000  1.0 0.1201879009
H  H7  1  0.05239000  0.45573000  0.68906000  1.0 0.1201879009
H  H8  1  0.44761000  0.54427000  0.18906000  1.0 0.1201879009
H  H9  1  0.75103000  0.15143000  0.49030000  1.0 0.1403796656
H  H10  1  0.74897000  0.84857000  0.99030000  1.0 0.1403796656
H  H11  1  0.25103000  0.34857000  0.50970000  1.0 0.1403796656
H  H12  1  0.24897000  0.65143000  0.00970000  1.0 0.1403796656
H  H13  1  0.63485000  0.62788000  0.74593000  1.0 0.1201879009
H  H14  1  0.86515000  0.37212000  0.24593000  1.0 0.1201879009
H  H15  1  0.13485000  0.87212000  0.25407000  1.0 0.1201879009
H  H16  1  0.36515000  0.12788000  0.75407000  1.0 0.1201879009
H  H17  1  0.15719000  0.85313000  0.74397000  1.0 0.1201879009
H  H18  1  0.34281000  0.14687000  0.24397000  1.0 0.1201879009
H  H19  1  0.65719000  0.64687000  0.25603000  1.0 0.1201879009
H  H20  1  0.84281000  0.35313000  0.75603000  1.0 0.1201879009
H  H21  1  0.14860000  0.93946000  0.68341000  1.0 0.1403796656
H  H22  1  0.35140000  0.06054000  0.18341000  1.0 0.1403796656
H  H23  1  0.64860000  0.56054000  0.31659000  1.0 0.1403796656
H  H24  1  0.85140000  0.43946000  0.81659000  1.0 0.1403796656
H  H25  1  0.54575000  0.74983000  0.70800000  1.0 0.1201879009
H  H26  1  0.95425000  0.25017000  0.20800000  1.0 0.1201879009
H  H27  1  0.04575000  0.75017000  0.29200000  1.0 0.1201879009
H  H28  1  0.45425000  0.24983000  0.79200000  1.0 0.1201879009
H  H29  1  0.81994000  0.70352000  0.75098000  1.0 0.1201879009
H  H30  1  0.68006000  0.29648000  0.25098000  1.0 0.1201879009
H  H31  1  0.31994000  0.79648000  0.24902000  1.0 0.1201879009
H  H32  1  0.18006000  0.20352000  0.74902000  1.0 0.1201879009
H  H33  1  0.25006000  0.12710000  0.66576000  1.0 0.1272541551
H  H34  1  0.24994000  0.87290000  0.16576000  1.0 0.1272541551
H  H35  1  0.75006000  0.37290000  0.33424000  1.0 0.1272541551
H  H36  1  0.74994000  0.62710000  0.83424000  1.0 0.1272541551
H  H37  1  0.97930000  0.09893000  0.69285000  1.0 0.1403796656
H  H38  1  0.52070000  0.90107000  0.19285000  1.0 0.1403796656
H  H39  1  0.47930000  0.40107000  0.30715000  1.0 0.1403796656
H  H40  1  0.02070000  0.59893000  0.80715000  1.0 0.1403796656
H  H41  1  0.13884000  0.63009000  0.66056000  1.0 0.1201879009
H  H42  1  0.36116000  0.36991000  0.16056000  1.0 0.1201879009
H  H43  1  0.63884000  0.86991000  0.33944000  1.0 0.1201879009
H  H44  1  0.86116000  0.13009000  0.83944000  1.0 0.1201879009
H  H45  1  0.95998000  0.78219000  0.73251000  1.0 0.1272541551
H  H46  1  0.54002000  0.21781000  0.23251000  1.0 0.1272541551
H  H47  1  0.45998000  0.71781000  0.26749000  1.0 0.1272541551
H  H48  1  0.04002000  0.28219000  0.76749000  1.0 0.1272541551
H  H49  1  0.34928000  0.67878000  0.69797000  1.0 0.1201879009
H  H50  1  0.15072000  0.32122000  0.19797000  1.0 0.1201879009
H  H51  1  0.84928000  0.82122000  0.30203000  1.0 0.1201879009
H  H52  1  0.65072000  0.17878000  0.80203000  1.0 0.1201879009
H  H53  1  0.88489000  0.12522000  0.42204000  1.0 0.1403796656
H  H54  1  0.61511000  0.87478000  0.92204000  1.0 0.1403796656
H  H55  1  0.38489000  0.37478000  0.57796000  1.0 0.1403796656
H  H56  1  0.11511000  0.62522000  0.07796000  1.0 0.1403796656
H  H57  1  0.41956000  0.07384000  0.37593000  1.0 0.1403796656
H  H58  1  0.08044000  0.92616000  0.87593000  1.0 0.1403796656
H  H59  1  0.91956000  0.42616000  0.62407000  1.0 0.1403796656
H  H60  1  0.58044000  0.57384000  0.12407000  1.0 0.1403796656
H  H61  1  0.95422000  0.55616000  0.65468000  1.0 0.1201879009
H  H62  1  0.54578000  0.44384000  0.15468000  1.0 0.1201879009
H  H63  1  0.45422000  0.94384000  0.34532000  1.0 0.1201879009
H  H64  1  0.04578000  0.05616000  0.84532000  1.0 0.1201879009
H  H65  1  0.89615000  0.91104000  0.71872000  1.0 0.1201879009
H  H66  1  0.60385000  0.08896000  0.21872000  1.0 0.1201879009
H  H67  1  0.39615000  0.58896000  0.28128000  1.0 0.1201879009
H  H68  1  0.10385000  0.41104000  0.78128000  1.0 0.1201879009
H  H69  1  0.00329000  0.09525000  0.35406000  1.0 0.1201879009
H  H70  1  0.49671000  0.90475000  0.85406000  1.0 0.1201879009
H  H71  1  0.50329000  0.40475000  0.64594000  1.0 0.1201879009
H  H72  1  0.99671000  0.59525000  0.14594000  1.0 0.1201879009
H  H73  1  0.21506000  0.16357000  0.57196000  1.0 0.1081491722
H  H74  1  0.28494000  0.83643000  0.07196000  1.0 0.1081491722
H  H75  1  0.71506000  0.33643000  0.42804000  1.0 0.1081491722
H  H76  1  0.78494000  0.66357000  0.92804000  1.0 0.1081491722
H  H77  1  0.11373000  0.17752000  0.52658000  1.0 0.10297555
H  H78  1  0.38627000  0.82248000  0.02658000  1.0 0.10297555
H  H79  1  0.61373000  0.32248000  0.47342000  1.0 0.10297555
H  H80  1  0.88627000  0.67752000  0.97342000  1.0 0.10297555
H  H81  1  0.03229000  0.08641000  0.51804000  1.0 0.1081491722
H  H82  1  0.46771000  0.91359000  0.01804000  1.0 0.1081491722
H  H83  1  0.53229000  0.41359000  0.48196000  1.0 0.1081491722
H  H84  1  0.96771000  0.58641000  0.98196000  1.0 0.1081491722
H  H85  1  0.98845000  0.10315000  0.56873000  1.0 0.10297555
H  H86  1  0.51155000  0.89685000  0.06873000  1.0 0.10297555
H  H87  1  0.48845000  0.39685000  0.43127000  1.0 0.10297555
H  H88  1  0.01155000  0.60315000  0.93127000  1.0 0.10297555
H  H89  1  0.15575000  0.06708000  0.55800000  1.0 0.1272541551
H  H90  1  0.34425000  0.93292000  0.05800000  1.0 0.1272541551
H  H91  1  0.65575000  0.43292000  0.44200000  1.0 0.1272541551
H  H92  1  0.84425000  0.56708000  0.94200000  1.0 0.1272541551
H  H93  1  0.74721000  0.00499000  0.60734000  0.42 0.0294104842
H  H94  1  0.75279000  0.99501000  0.10734000  0.42 0.0294104842
H  H95  1  0.24721000  0.49501000  0.39266000  0.42 0.0294104842
H  H96  1  0.25279000  0.50499000  0.89266000  0.42 0.0294104842
H  H97  1  0.75588000  0.06294000  0.58133000  0.42 0.0882983898
H  H98  1  0.74412000  0.93706000  0.08133000  0.42 0.0882983898
H  H99  1  0.25588000  0.43706000  0.41867000  0.42 0.0882983898
H  H100  1  0.24412000  0.56294000  0.91867000  0.42 0.0882983898
H  H101  1  0.74243000  0.97824000  0.53463000  0.42 0.0506493145
H  H102  1  0.75757000  0.02176000  0.03463000  0.42 0.0506493145
H  H103  1  0.24243000  0.52176000  0.46537000  0.42 0.0506493145
H  H104  1  0.25757000  0.47824000  0.96537000  0.42 0.0506493145
H  H105  1  0.62018000  0.02833000  0.51999000  0.42 0.077135803
H  H106  1  0.87982000  0.97167000  0.01999000  0.42 0.077135803
H  H107  1  0.12018000  0.47167000  0.48001000  0.42 0.077135803
H  H108  1  0.37982000  0.52833000  0.98001000  0.42 0.077135803
H  H109  1  0.54291000  0.97695000  0.54725000  0.42 0.0717945543
H  H110  1  0.95709000  0.02305000  0.04725000  0.42 0.0717945543
H  H111  1  0.04291000  0.52305000  0.45275000  0.42 0.0717945543
H  H112  1  0.45709000  0.47695000  0.95275000  0.42 0.0717945543
H  H113  1  0.80479000  0.97673000  0.61267000  0.58 0.077135803
H  H114  1  0.69521000  0.02327000  0.11267000  0.58 0.077135803
H  H115  1  0.30479000  0.52327000  0.38733000  0.58 0.077135803
H  H116  1  0.19521000  0.47673000  0.88733000  0.58 0.077135803
H  H117  1  0.81414000  0.97048000  0.55925000  0.58 0.0717945543
H  H118  1  0.68586000  0.02952000  0.05925000  0.58 0.0717945543
H  H119  1  0.31414000  0.52952000  0.44075000  0.58 0.0717945543
H  H120  1  0.18586000  0.47048000  0.94075000  0.58 0.0717945543
H  H121  1  0.64414000  0.95249000  0.58560000  0.58 0.077135803
H  H122  1  0.85586000  0.04751000  0.08560000  0.58 0.077135803
H  H123  1  0.14414000  0.54751000  0.41440000  0.58 0.077135803
H  H124  1  0.35586000  0.45249000  0.91440000  0.58 0.077135803
H  H125  1  0.76077000  0.06460000  0.58472000  0.58 0.0882983898
H  H126  1  0.73923000  0.93540000  0.08472000  0.58 0.0882983898
H  H127  1  0.26077000  0.43540000  0.41528000  0.58 0.0882983898
H  H128  1  0.23923000  0.56460000  0.91528000  0.58 0.0882983898
H  H129  1  0.62699000  0.04245000  0.54813000  0.58 0.0373761583
H  H130  1  0.87301000  0.95755000  0.04813000  0.58 0.0373761583
H  H131  1  0.12699000  0.45755000  0.45187000  0.58 0.0373761583
H  H132  1  0.37301000  0.54245000  0.95187000  0.58 0.0373761583
C  C1  1  0.82190000  0.04070000  0.71978000  1.0 0.0579212647
C  C2  1  0.67810000  0.95930000  0.21978000  1.0 0.0579212647
C  C3  1  0.32190000  0.45930000  0.28022000  1.0 0.0579212647
C  C4  1  0.17810000  0.54070000  0.78022000  1.0 0.0579212647
C  C5  1  0.62040000  0.06100000  0.33362000  1.0 0.0717945543
C  C6  1  0.87960000  0.93900000  0.83362000  1.0 0.0717945543
C  C7  1  0.12040000  0.43900000  0.66638000  1.0 0.077135803
C  C8  1  0.37960000  0.56100000  0.16638000  1.0 0.077135803
C  C9  1  0.09550000  0.02329000  0.68420000  1.0 0.1201879009
C  C10  1  0.40450000  0.97671000  0.18420000  1.0 0.1201879009
C  C11  1  0.59550000  0.47671000  0.31580000  1.0 0.1201879009
C  C12  1  0.90450000  0.52329000  0.81580000  1.0 0.1201879009
C  C13  1  0.63580000  0.10260000  0.40753000  1.0 0.1272541551
C  C14  1  0.86420000  0.89740000  0.90753000  1.0 0.1272541551
C  C15  1  0.13580000  0.39740000  0.59247000  1.0 0.1272541551
C  C16  1  0.36420000  0.60260000  0.09247000  1.0 0.1272541551
C  C17  1  0.77400000  0.58260000  0.69964000  1.0 -0.0382844718
C  C18  1  0.72600000  0.41740000  0.19964000  1.0 -0.0382844718
C  C19  1  0.27400000  0.91740000  0.30036000  1.0 -0.0382844718
C  C20  1  0.22600000  0.08260000  0.80036000  1.0 -0.0382844718
C  C21  1  0.50150000  0.85600000  0.73670000  1.0 0.5494027896
C  C22  1  0.99850000  0.14400000  0.23670000  1.0 0.5494027896
C  C23  1  0.00150000  0.64400000  0.26330000  1.0 0.5494027896
C  C24  1  0.49850000  0.35600000  0.76330000  1.0 0.5494027896
C  C25  1  0.63220000  0.14307000  0.48863000  1.0 -0.2056051479
C  C26  1  0.86780000  0.85693000  0.98863000  1.0 -0.2046535151
C  C27  1  0.13220000  0.35693000  0.51137000  1.0 -0.2056051479
C  C28  1  0.36780000  0.64307000  0.01137000  1.0 -0.2046535151
C  C29  1  0.25180000  0.04240000  0.65981000  1.0 -0.0098745949
C  C30  1  0.24820000  0.95760000  0.15981000  1.0 -0.0098745949
C  C31  1  0.75180000  0.45760000  0.34019000  1.0 -0.0098745949
C  C32  1  0.74820000  0.54240000  0.84019000  1.0 -0.0098745949
C  C33  1  0.45950000  0.10093000  0.62462000  1.0 -0.0035725253
C  C34  1  0.04050000  0.89907000  0.12462000  1.0 -0.0035725253
C  C35  1  0.95950000  0.39907000  0.37538000  1.0 -0.0035725253
C  C36  1  0.54050000  0.60093000  0.87538000  1.0 -0.0035725253
C  C37  1  0.73720000  0.62817000  0.72865000  1.0 -0.0956480713
C  C38  1  0.76280000  0.37183000  0.22865000  1.0 -0.0956480713
C  C39  1  0.23720000  0.87183000  0.27135000  1.0 -0.0956480713
C  C40  1  0.26280000  0.12817000  0.77135000  1.0 -0.0956480713
C  C41  1  0.19700000  0.81780000  0.73470000  1.0 -0.0947615417
C  C42  1  0.30300000  0.18220000  0.23470000  1.0 -0.0947615417
C  C43  1  0.69700000  0.68220000  0.26530000  1.0 -0.0956480713
C  C44  1  0.80300000  0.31780000  0.76530000  1.0 -0.0947615417
C  C45  1  0.13100000  0.72163000  0.71406000  1.0 0.0717945543
C  C46  1  0.36900000  0.27837000  0.21406000  1.0 0.0717945543
C  C47  1  0.63100000  0.77837000  0.28594000  1.0 0.0717945543
C  C48  1  0.86900000  0.22163000  0.78594000  1.0 0.0717945543
C  C49  1  0.51480000  0.15300000  0.52545000  1.0 0.0187699524
C  C50  1  0.98520000  0.84700000  0.02545000  1.0 0.0187699524
C  C51  1  0.01480000  0.34700000  0.47455000  1.0 0.0187699524
C  C52  1  0.48520000  0.65300000  0.97455000  1.0 0.0187699524
C  C53  1  0.06610000  0.96620000  0.69240000  1.0 -0.1805562304
C  C54  1  0.43390000  0.03380000  0.19240000  1.0 -0.1805562304
C  C55  1  0.56610000  0.53380000  0.30760000  1.0 -0.1805562304
C  C56  1  0.93390000  0.46620000  0.80760000  1.0 -0.1805562304
C  C57  1  0.34820000  0.13930000  0.51486000  1.0 -0.0098745949
C  C58  1  0.15180000  0.86070000  0.01486000  1.0 -0.0098745949
C  C59  1  0.84820000  0.36070000  0.48514000  1.0 -0.0098745949
C  C60  1  0.65180000  0.63930000  0.98514000  1.0 -0.0098745949
C  C61  1  0.42760000  0.75650000  0.71357000  1.0 -0.0956480713
C  C62  1  0.07240000  0.24350000  0.21357000  1.0 -0.0947615417
C  C63  1  0.92760000  0.74350000  0.28643000  1.0 -0.0956480713
C  C64  1  0.57240000  0.25650000  0.78643000  1.0 -0.0956480713
C  C65  1  0.65510000  0.23140000  0.57241000  1.0 0.3339607133
C  C66  1  0.84490000  0.76860000  0.07241000  1.0 0.3339607133
C  C67  1  0.15510000  0.26860000  0.42759000  1.0 0.3339607133
C  C68  1  0.34490000  0.73140000  0.92759000  1.0 0.3339607133
C  C69  1  0.55660000  0.12036000  0.45077000  1.0 -0.0235812495
C  C70  1  0.94340000  0.87964000  0.95077000  1.0 -0.0235812495
C  C71  1  0.05660000  0.37964000  0.54923000  1.0 -0.0235812495
C  C72  1  0.44340000  0.62036000  0.04923000  1.0 -0.0235812495
C  C73  1  0.84940000  0.67331000  0.73209000  1.0 -0.1494007545
C  C74  1  0.65060000  0.32669000  0.23209000  1.0 -0.1494007545
C  C75  1  0.34940000  0.82669000  0.26791000  1.0 -0.1494007545
C  C76  1  0.15060000  0.17331000  0.76791000  1.0 -0.1494007545
C  C77  1  0.37310000  0.80952000  0.72829000  1.0 -0.0235812495
C  C78  1  0.12690000  0.19048000  0.22829000  1.0 -0.0235812495
C  C79  1  0.87310000  0.69048000  0.27171000  1.0 -0.0235812495
C  C80  1  0.62690000  0.30952000  0.77171000  1.0 -0.0235812495
C  C81  1  0.30650000  0.09600000  0.65307000  1.0 -0.2056051479
C  C82  1  0.19350000  0.90400000  0.15307000  1.0 -0.2056051479
C  C83  1  0.80650000  0.40400000  0.34693000  1.0 -0.2046535151
C  C84  1  0.69350000  0.59600000  0.84693000  1.0 -0.2056051479
C  C85  1  0.96670000  0.06040000  0.69821000  1.0 -0.1805562304
C  C86  1  0.53330000  0.93960000  0.19821000  1.0 -0.1805562304
C  C87  1  0.46670000  0.43960000  0.30179000  1.0 -0.1805562304
C  C88  1  0.03330000  0.56040000  0.80179000  1.0 -0.1854476617
C  C89  1  0.03790000  0.62980000  0.67838000  1.0 -0.1494007545
C  C90  1  0.46210000  0.37020000  0.17838000  1.0 -0.1418942372
C  C91  1  0.53790000  0.87020000  0.32162000  1.0 -0.1418942372
C  C92  1  0.96210000  0.12980000  0.82162000  1.0 -0.1418942372
C  C93  1  0.56870000  0.17620000  0.56990000  1.0 -0.0820097724
C  C94  1  0.93130000  0.82380000  0.06990000  1.0 -0.0820097724
C  C95  1  0.06870000  0.32380000  0.43010000  1.0 -0.0820097724
C  C96  1  0.43130000  0.67620000  0.93010000  1.0 -0.0820097724
C  C97  1  0.00690000  0.67480000  0.70782000  1.0 0.077135803
C  C98  1  0.49310000  0.32520000  0.20782000  1.0 0.077135803
C  C99  1  0.50690000  0.82520000  0.29218000  1.0 0.077135803
C  C100  1  0.99310000  0.17480000  0.79218000  1.0 0.077135803
C  C101  1  0.66060000  0.53200000  0.69826000  1.0 0.5494027896
C  C102  1  0.83940000  0.46800000  0.19826000  1.0 0.5494027896
C  C103  1  0.16060000  0.96800000  0.30174000  1.0 0.5494027896
C  C104  1  0.33940000  0.03200000  0.80174000  1.0 0.5494027896
C  C105  1  0.07840000  0.77510000  0.72780000  1.0 -0.1346262233
C  C106  1  0.42160000  0.22490000  0.22780000  1.0 -0.1346262233
C  C107  1  0.57840000  0.72490000  0.27220000  1.0 -0.1346262233
C  C108  1  0.92160000  0.27510000  0.77220000  1.0 -0.1346262233
C  C109  1  0.30910000  0.71410000  0.70720000  1.0 -0.1418942372
C  C110  1  0.19090000  0.28590000  0.20720000  1.0 -0.1418942372
C  C111  1  0.80910000  0.78590000  0.29280000  1.0 -0.1418942372
C  C112  1  0.69090000  0.21410000  0.79280000  1.0 -0.1418942372
C  C113  1  0.53900000  0.15470000  0.61185000  1.0 -0.0820097724
C  C114  1  0.96100000  0.84530000  0.11185000  1.0 -0.0820097724
C  C115  1  0.03900000  0.34530000  0.38815000  1.0 -0.0820097724
C  C116  1  0.46100000  0.65470000  0.88815000  1.0 -0.0820097724
C  C117  1  0.81350000  0.10890000  0.39987000  1.0 -0.1726844417
C  C118  1  0.68650000  0.89110000  0.89987000  1.0 -0.1805562304
C  C119  1  0.31350000  0.39110000  0.60013000  1.0 -0.1805562304
C  C120  1  0.18650000  0.60890000  0.10013000  1.0 -0.1805562304
C  C121  1  0.53990000  0.07840000  0.37269000  1.0 -0.1805562304
C  C122  1  0.96010000  0.92160000  0.87269000  1.0 -0.1854476617
C  C123  1  0.03990000  0.42160000  0.62731000  1.0 -0.1805562304
C  C124  1  0.46010000  0.57840000  0.12731000  1.0 -0.1805562304
C  C125  1  0.92670000  0.58550000  0.67466000  1.0 -0.0956480713
C  C126  1  0.57330000  0.41450000  0.17466000  1.0 -0.0947615417
C  C127  1  0.42670000  0.91450000  0.32534000  1.0 -0.0956480713
C  C128  1  0.07330000  0.08550000  0.82534000  1.0 -0.0956480713
C  C129  1  0.91480000  0.94943000  0.71383000  1.0 0.0717945543
C  C130  1  0.58520000  0.05057000  0.21383000  1.0 0.0717945543
C  C131  1  0.41480000  0.55057000  0.28617000  1.0 0.0717945543
C  C132  1  0.08520000  0.44943000  0.78617000  1.0 0.0717945543
C  C133  1  0.88370000  0.09050000  0.35871000  1.0 0.10297555
C  C134  1  0.61630000  0.90950000  0.85871000  1.0 0.10297555
C  C135  1  0.38370000  0.40950000  0.64129000  1.0 0.1081491722
C  C136  1  0.11630000  0.59050000  0.14129000  1.0 0.10297555
C  C137  1  0.60030000  0.19500000  0.64840000  1.0 0.3544963462
C  C138  1  0.89970000  0.80500000  0.14840000  1.0 0.3544963462
C  C139  1  0.10030000  0.30500000  0.35160000  1.0 0.3544963462
C  C140  1  0.39970000  0.69500000  0.85160000  1.0 0.3544963462
C  C141  1  0.52060000  0.04930000  0.61147000  1.0 -0.0098745949
C  C142  1  0.97940000  0.95070000  0.11147000  1.0 -0.0098745949
C  C143  1  0.02060000  0.45070000  0.38853000  1.0 -0.0098745949
C  C144  1  0.47940000  0.54930000  0.88853000  1.0 -0.0098745949
C  C145  1  0.70100000  0.24100000  0.62310000  1.0 0.2687966762
C  C146  1  0.79900000  0.75900000  0.12310000  1.0 0.2687966762
C  C147  1  0.20100000  0.25900000  0.37690000  1.0 0.2687966762
C  C148  1  0.29900000  0.74100000  0.87690000  1.0 0.2687966762
C  C149  1  0.18440000  0.14920000  0.54190000  1.0 -0.1805562304
C  C150  1  0.31560000  0.85080000  0.04190000  1.0 -0.1805562304
C  C151  1  0.68440000  0.35080000  0.45810000  1.0 -0.1805562304
C  C152  1  0.81560000  0.64920000  0.95810000  1.0 -0.1805562304
C  C153  1  0.08120000  0.09690000  0.54710000  1.0 -0.3968200969
C  C154  1  0.41880000  0.90310000  0.04710000  1.0 -0.3968200969
C  C155  1  0.58120000  0.40310000  0.45290000  1.0 -0.3968200969
C  C156  1  0.91880000  0.59690000  0.95290000  1.0 -0.3968200969
C  C157  1  0.68240000  0.03030000  0.58750000  0.42 -0.1805562304
C  C158  1  0.81760000  0.96970000  0.08750000  0.42 -0.1805562304
C  C159  1  0.18240000  0.46970000  0.41250000  0.42 -0.1805562304
C  C160  1  0.31760000  0.53030000  0.91250000  0.42 -0.1805562304
C  C161  1  0.64400000  0.00080000  0.54340000  0.42 -0.1418942372
C  C162  1  0.85600000  0.99920000  0.04340000  0.42 -0.1418942372
C  C163  1  0.14400000  0.49920000  0.45660000  0.42 -0.1418942372
C  C164  1  0.35600000  0.50080000  0.95660000  0.42 -0.1418942372
C  C165  1  0.73910000  0.97910000  0.58470000  0.58 -0.1418942372
C  C166  1  0.76090000  0.02090000  0.08470000  0.58 -0.1418942372
C  C167  1  0.23910000  0.52090000  0.41530000  0.58 -0.1418942372
C  C168  1  0.26090000  0.47910000  0.91530000  0.58 -0.1418942372
C  C169  1  0.66770000  0.03750000  0.57940000  0.58 -0.1805562304
C  C170  1  0.83230000  0.96250000  0.07940000  0.58 -0.1805562304
C  C171  1  0.16770000  0.46250000  0.42060000  0.58 -0.1805562304
C  C172  1  0.33230000  0.53750000  0.92060000  0.58 -0.1805562304
S  S1  1  0.38952000  0.99578000  0.63350000  1.0 0.007678544
S  S2  1  0.11048000  0.00422000  0.13350000  1.0 0.007678544
S  S3  1  0.88952000  0.50422000  0.36650000  1.0 0.007678544
S  S4  1  0.61048000  0.49578000  0.86650000  1.0 0.007678544
S  S5  1  0.33530000  0.11267000  0.45972000  1.0 0.077135803
S  S6  1  0.16470000  0.88733000  0.95972000  1.0 0.0882983898
S  S7  1  0.83530000  0.38733000  0.54028000  1.0 0.0882983898
S  S8  1  0.66470000  0.61267000  0.04028000  1.0 0.0882983898
N  N1  1  0.79430000  0.98582000  0.72781000  1.0 -0.2454684065
N  N2  1  0.70570000  0.01418000  0.22781000  1.0 -0.2454684065
N  N3  1  0.29430000  0.51418000  0.27219000  1.0 -0.2454684065
N  N4  1  0.20570000  0.48582000  0.77219000  1.0 -0.2445454286
N  N5  1  0.79280000  0.06680000  0.32604000  1.0 -0.2247897522
N  N6  1  0.70720000  0.93320000  0.82604000  1.0 -0.225549473
N  N7  1  0.29280000  0.43320000  0.67396000  1.0 -0.225549473
N  N8  1  0.20720000  0.56680000  0.17396000  1.0 -0.2247897522
O  O1  1  0.43280000  0.90424000  0.74423000  1.0 -0.5368910121
O  O2  1  0.06720000  0.09576000  0.24423000  1.0 -0.5368910121
O  O3  1  0.93280000  0.59576000  0.25577000  1.0 -0.5368910121
O  O4  1  0.56720000  0.40424000  0.75577000  1.0 -0.5368910121
O  O5  1  0.52820000  0.53266000  0.72525000  1.0 -0.5487580435
O  O6  1  0.97180000  0.46734000  0.22525000  1.0 -0.5487580435
O  O7  1  0.02820000  0.96734000  0.27475000  1.0 -0.5487580435
O  O8  1  0.47180000  0.03266000  0.77475000  1.0 -0.5487580435
O  O9  1  0.65830000  0.84666000  0.73762000  1.0 -0.5368910121
O  O10  1  0.84170000  0.15334000  0.23762000  1.0 -0.5368910121
O  O11  1  0.15830000  0.65334000  0.26238000  1.0 -0.5368910121
O  O12  1  0.34170000  0.34666000  0.76238000  1.0 -0.5368910121
O  O13  1  0.69920000  0.49102000  0.67429000  1.0 -0.5487580435
O  O14  1  0.80080000  0.50898000  0.17429000  1.0 -0.5487580435
O  O15  1  0.19920000  0.00898000  0.32571000  1.0 -0.5487580435
O  O16  1  0.30080000  0.99102000  0.82571000  1.0 -0.5487580435
F  F1  1  0.79660000  0.23726000  0.54580000  1.0 -0.1494007545
F  F2  1  0.70340000  0.76274000  0.04580000  1.0 -0.1494007545
F  F3  1  0.29660000  0.26274000  0.45420000  1.0 -0.1494007545
F  F4  1  0.20340000  0.73726000  0.95420000  1.0 -0.1494007545
F  F5  1  0.46150000  0.21934000  0.66889000  1.0 -0.1571306574
F  F6  1  0.03850000  0.78066000  0.16889000  1.0 -0.1571306574
F  F7  1  0.96150000  0.28066000  0.33111000  1.0 -0.1571306574
F  F8  1  0.53850000  0.71934000  0.83111000  1.0 -0.1571306574
F  F9  1  0.54470000  0.27396000  0.55948000  1.0 -0.1726844417
F  F10  1  0.95530000  0.72604000  0.05948000  1.0 -0.1726844417
F  F11  1  0.04470000  0.22604000  0.44052000  1.0 -0.1726844417
F  F12  1  0.45530000  0.77396000  0.94052000  1.0 -0.1726844417
F  F13  1  0.69080000  0.29017000  0.63840000  1.0 -0.1219184162
F  F14  1  0.80920000  0.70983000  0.13840000  1.0 -0.1219184162
F  F15  1  0.19080000  0.20983000  0.36160000  1.0 -0.1219184162
F  F16  1  0.30920000  0.79017000  0.86160000  1.0 -0.1219184162
F  F17  1  0.68710000  0.17058000  0.68176000  1.0 -0.1418942372
F  F18  1  0.81290000  0.82942000  0.18176000  1.0 -0.1418942372
F  F19  1  0.18710000  0.32942000  0.31824000  1.0 -0.1418942372
F  F20  1  0.31290000  0.67058000  0.81824000  1.0 -0.1418942372
F  F21  1  0.87600000  0.22550000  0.62786000  1.0 -0.1571306574
F  F22  1  0.62400000  0.77450000  0.12786000  1.0 -0.1571306574
F  F23  1  0.37600000  0.27450000  0.37214000  1.0 -0.1571306574
F  F24  1  0.12400000  0.72550000  0.87214000  1.0 -0.1571306574
