# DDEC6 charges by PACMAN v1.1 (https://github.com/mtap-research/PACMAN-charge/)
data_d2me00280a2_FSR_pacman
_symmetry_space_group_name_H-M   'P 1'
_cell_length_a   6.63270000
_cell_length_b   18.11300000
_cell_length_c   10.75100000
_cell_angle_alpha   90.00000000
_cell_angle_beta   90.00000000
_cell_angle_gamma   90.00000000
_symmetry_Int_Tables_number   1
_chemical_formula_structural   AlC8O5F4
_chemical_formula_sum   'Al4 C32 O20 F16.0'
_cell_volume   1291.60466042
_cell_formula_units_Z   4
loop_
 _symmetry_equiv_pos_site_id
 _symmetry_equiv_pos_as_xyz
  1  'x, y, z'
loop_
 _atom_site_type_symbol
 _atom_site_label
 _atom_site_symmetry_multiplicity
 _atom_site_fract_x
 _atom_site_fract_y
 _atom_site_fract_z
 _atom_site_occupancy
 _atom_site_charge
Al  Al1  1  0.25000000  0.25000000  0.75000000  1.0 1.4592713765
Al  Al2  1  0.75000000  0.25000000  0.75000000  1.0 1.4592713765
Al  Al3  1  0.75000000  0.75000000  0.25000000  1.0 1.4592713765
Al  Al4  1  0.25000000  0.75000000  0.25000000  1.0 1.4592713765
C  C1  1  0.00000000  0.13000000  0.87000000  1.0 0.4576479149
C  C2  1  0.00000000  0.37000000  0.87000000  1.0 0.4576479149
C  C3  1  0.00000000  0.63000000  0.13000000  1.0 0.4576479149
C  C4  1  0.00000000  0.87000000  0.13000000  1.0 0.4576479149
C  C5  1  0.50000000  0.63000000  0.37000000  1.0 0.4576479149
C  C6  1  0.50000000  0.87000000  0.37000000  1.0 0.4576479149
C  C7  1  0.50000000  0.13000000  0.63000000  1.0 0.4549903325
C  C8  1  0.50000000  0.37000000  0.63000000  1.0 0.4549903325
C  C9  1  0.00000000  0.06430000  0.93570000  1.0 -0.1296675079
C  C10  1  0.00000000  0.43570000  0.93570000  1.0 -0.1296675079
C  C11  1  0.00000000  0.56430000  0.06430000  1.0 -0.1296675079
C  C12  1  0.00000000  0.93570000  0.06430000  1.0 -0.1296675079
C  C13  1  0.50000000  0.56430000  0.43570000  1.0 -0.1296675079
C  C14  1  0.50000000  0.93570000  0.43570000  1.0 -0.1296675079
C  C15  1  0.50000000  0.06430000  0.56430000  1.0 -0.1296675079
C  C16  1  0.50000000  0.43570000  0.56430000  1.0 -0.1296675079
C  C33  1  0.13500000  0.01300000  0.91300000  0.332 0.0812596656
C  C34  1  0.86500000  0.48700000  0.91300000  0.332 0.0812596656
C  C35  1  0.86500000  0.01300000  0.91300000  0.332 0.0812596656
C  C36  1  0.86500000  0.51300000  0.08700000  0.332 0.0812596656
C  C37  1  0.13500000  0.98700000  0.08700000  0.332 0.0812596656
C  C38  1  0.13500000  0.48700000  0.91300000  0.332 0.0812596656
C  C39  1  0.86500000  0.98700000  0.08700000  0.332 0.0812596656
C  C40  1  0.13500000  0.51300000  0.08700000  0.332 0.0812596656
C  C41  1  0.63500000  0.51300000  0.41300000  0.332 0.0812596656
C  C42  1  0.36500000  0.98700000  0.41300000  0.332 0.0812596656
C  C43  1  0.36500000  0.51300000  0.41300000  0.332 0.0812596656
C  C44  1  0.36500000  0.01300000  0.58700000  0.332 0.0812596656
C  C45  1  0.63500000  0.48700000  0.58700000  0.332 0.0812596656
C  C46  1  0.63500000  0.98700000  0.41300000  0.332 0.0812596656
C  C47  1  0.36500000  0.48700000  0.58700000  0.332 0.0812596656
C  C48  1  0.63500000  0.01300000  0.58700000  0.332 0.0812596656
C  C17  1  0.86000000  0.05200000  0.01300000  0.668 0.0812596656
C  C18  1  0.14000000  0.44800000  0.01300000  0.668 0.0812596656
C  C19  1  0.14000000  0.05200000  0.01300000  0.668 0.0812596656
C  C20  1  0.14000000  0.55200000  0.98700000  0.668 0.0812596656
C  C21  1  0.86000000  0.94800000  0.98700000  0.668 0.0812596656
C  C22  1  0.86000000  0.44800000  0.01300000  0.668 0.0812596656
C  C23  1  0.14000000  0.94800000  0.98700000  0.668 0.0812596656
C  C24  1  0.86000000  0.55200000  0.98700000  0.668 0.0812596656
C  C25  1  0.36000000  0.55200000  0.51300000  0.668 0.0812596656
C  C26  1  0.64000000  0.94800000  0.51300000  0.668 0.0812596656
C  C27  1  0.64000000  0.55200000  0.51300000  0.668 0.0812596656
C  C28  1  0.64000000  0.05200000  0.48700000  0.668 0.0812596656
C  C29  1  0.36000000  0.44800000  0.48700000  0.668 0.0812596656
C  C30  1  0.36000000  0.94800000  0.51300000  0.668 0.0812596656
C  C31  1  0.64000000  0.44800000  0.48700000  0.668 0.0812596656
C  C32  1  0.36000000  0.05200000  0.48700000  0.668 0.0812596656
O  O1  1  0.64100000  0.82700000  0.35350000  1.0 -0.3436308004
O  O2  1  0.35900000  0.67300000  0.35350000  1.0 -0.3436308004
O  O3  1  0.35900000  0.82700000  0.35350000  1.0 -0.3436308004
O  O4  1  0.35900000  0.32700000  0.64650000  1.0 -0.3436308004
O  O5  1  0.64100000  0.17300000  0.64650000  1.0 -0.3436308004
O  O6  1  0.64100000  0.67300000  0.35350000  1.0 -0.3436308004
O  O7  1  0.35900000  0.17300000  0.64650000  1.0 -0.3436308004
O  O8  1  0.64100000  0.32700000  0.64650000  1.0 -0.3436308004
O  O9  1  0.14100000  0.32700000  0.85350000  1.0 -0.3436308004
O  O10  1  0.85900000  0.17300000  0.85350000  1.0 -0.3436308004
O  O11  1  0.85900000  0.32700000  0.85350000  1.0 -0.3436308004
O  O12  1  0.85900000  0.82700000  0.14650000  1.0 -0.3436308004
O  O13  1  0.14100000  0.67300000  0.14650000  1.0 -0.3436308004
O  O14  1  0.14100000  0.17300000  0.85350000  1.0 -0.3436308004
O  O15  1  0.85900000  0.67300000  0.14650000  1.0 -0.3436308004
O  O16  1  0.14100000  0.82700000  0.14650000  1.0 -0.3436308004
O  O17  1  0.00000000  0.25000000  0.65718000  1.0 -0.7501588711
O  O18  1  0.00000000  0.75000000  0.34282000  1.0 -0.7501588711
O  O19  1  0.50000000  0.75000000  0.15718000  1.0 -0.7501588711
O  O20  1  0.50000000  0.25000000  0.84282000  1.0 -0.7501588711
F  F17  1  0.26600000  0.02510000  0.83300000  0.332 -0.0678267898
F  F18  1  0.73400000  0.47490000  0.83300000  0.332 -0.0678267898
F  F19  1  0.73400000  0.02510000  0.83300000  0.332 -0.0678267898
F  F20  1  0.73400000  0.52510000  0.16700000  0.332 -0.0678267898
F  F21  1  0.26600000  0.97490000  0.16700000  0.332 -0.0678267898
F  F22  1  0.26600000  0.47490000  0.83300000  0.332 -0.0678267898
F  F23  1  0.73400000  0.97490000  0.16700000  0.332 -0.0678267898
F  F24  1  0.26600000  0.52510000  0.16700000  0.332 -0.0678267898
F  F25  1  0.76600000  0.52510000  0.33300000  0.332 -0.0678267898
F  F26  1  0.23400000  0.97490000  0.33300000  0.332 -0.0678267898
F  F27  1  0.23400000  0.52510000  0.33300000  0.332 -0.0678267898
F  F28  1  0.23400000  0.02510000  0.66700000  0.332 -0.0678267898
F  F29  1  0.76600000  0.47490000  0.66700000  0.332 -0.0678267898
F  F30  1  0.76600000  0.97490000  0.33300000  0.332 -0.0678267898
F  F31  1  0.23400000  0.47490000  0.66700000  0.332 -0.0678267898
F  F32  1  0.76600000  0.02510000  0.66700000  0.332 -0.0678267898
F  F1  1  0.72000000  0.10140000  0.02850000  0.668 -0.091997873
F  F2  1  0.28000000  0.39860000  0.02850000  0.668 -0.091997873
F  F3  1  0.28000000  0.10140000  0.02850000  0.668 -0.091997873
F  F4  1  0.28000000  0.60140000  0.97150000  0.668 -0.091997873
F  F5  1  0.72000000  0.89860000  0.97150000  0.668 -0.091997873
F  F6  1  0.72000000  0.39860000  0.02850000  0.668 -0.091997873
F  F7  1  0.28000000  0.89860000  0.97150000  0.668 -0.091997873
F  F8  1  0.72000000  0.60140000  0.97150000  0.668 -0.091997873
F  F9  1  0.22000000  0.60140000  0.52850000  0.668 -0.091997873
F  F10  1  0.78000000  0.89860000  0.52850000  0.668 -0.091997873
F  F11  1  0.78000000  0.60140000  0.52850000  0.668 -0.091997873
F  F12  1  0.78000000  0.10140000  0.47150000  0.668 -0.091997873
F  F13  1  0.22000000  0.39860000  0.47150000  0.668 -0.091997873
F  F14  1  0.22000000  0.89860000  0.52850000  0.668 -0.091997873
F  F15  1  0.78000000  0.39860000  0.47150000  0.668 -0.091997873
F  F16  1  0.22000000  0.10140000  0.47150000  0.668 -0.091997873
