# generated by PACMAN-DDEC6 charge (https://github.com/sxm13/PACMAN/)
data_structure
_chemical_formula_sum              "Zn16 H36 C108 N12 O76"
_cell_length_a       18.171
_cell_length_b       18.171
_cell_length_c       18.171
_cell_angle_alpha    90
_cell_angle_beta     90
_cell_angle_gamma    90

_symmetry_space_group_name_H-M    "P 1"
_symmetry_Int_Tables_number       1

loop_
  _symmetry_equiv_pos_as_xyz
  'x, y, z'

loop_
  _atom_site_type_symbol
  _atom_site_label
  _atom_site_symmetry_multiplicity
  _atom_site_fract_x
  _atom_site_fract_y
  _atom_site_fract_z
  _atom_site_occupancy
  _atom_site_charge
Zn  Zn1       1.0  0.92689  0.02136  0.66221  1.0000 0.9245515271
Zn  Zn2       1.0  0.66221  0.92689  0.02136  1.0000 0.9245515271
Zn  Zn3       1.0  0.02136  0.66221  0.92689  1.0000 0.9245515271
Zn  Zn4       1.0  0.47864  0.33779  0.42689  1.0000 0.9245515271
Zn  Zn5       1.0  0.16221  0.57311  0.97864  1.0000 0.9245515271
Zn  Zn6       1.0  0.97864  0.16221  0.57311  1.0000 0.9245515271
Zn  Zn7       1.0  0.83779  0.07311  0.52136  1.0000 0.9245515271
Zn  Zn8       1.0  0.33779  0.42689  0.47864  1.0000 0.9245515271
Zn  Zn9       1.0  0.52136  0.83779  0.07311  1.0000 0.9245515271
Zn  Zn10      1.0  0.57311  0.97864  0.16221  1.0000 0.9245515271
Zn  Zn11      1.0  0.42689  0.47864  0.33779  1.0000 0.9245515271
Zn  Zn12      1.0  0.07311  0.52136  0.83779  1.0000 0.9245515271
Zn  Zn13      1.0  0.99803  0.00197  0.50197  1.0000 0.8462546521
Zn  Zn14      1.0  0.50197  0.99803  0.00197  1.0000 0.8449417604
Zn  Zn15      1.0  0.00197  0.50197  0.99803  1.0000 0.8462546521
Zn  Zn16      1.0  0.49803  0.49803  0.49803  1.0000 0.8462546521
H   H1        1.0  0.03435  0.60585  0.62748  1.0000 0.1445461242
H   H2        1.0  0.62748  0.03435  0.60585  1.0000 0.1445461242
H   H3        1.0  0.60585  0.62748  0.03435  1.0000 0.1445461242
H   H4        1.0  0.89415  0.37252  0.53435  1.0000 0.1445461242
H   H5        1.0  0.12748  0.46565  0.39415  1.0000 0.1445461242
H   H6        1.0  0.39415  0.12748  0.46565  1.0000 0.1445461242
H   H7        1.0  0.87252  0.96565  0.10585  1.0000 0.1445461242
H   H8        1.0  0.37252  0.53435  0.89415  1.0000 0.1445461242
H   H9        1.0  0.10585  0.87252  0.96565  1.0000 0.1445461242
H   H10       1.0  0.46565  0.39415  0.12748  1.0000 0.1445461242
H   H11       1.0  0.53435  0.89415  0.37252  1.0000 0.1445461242
H   H12       1.0  0.96565  0.10585  0.87252  1.0000 0.1445461242
H   H13       1.0  0.99746  0.79756  0.73543  1.0000 0.1322822972
H   H14       1.0  0.73543  0.99746  0.79756  1.0000 0.1322822972
H   H15       1.0  0.79756  0.73543  0.99746  1.0000 0.1322822972
H   H16       1.0  0.70244  0.26457  0.49746  1.0000 0.1322822972
H   H17       1.0  0.23543  0.50254  0.20244  1.0000 0.1322822972
H   H18       1.0  0.20244  0.23543  0.50254  1.0000 0.1322822972
H   H19       1.0  0.76457  0.00254  0.29756  1.0000 0.1322822972
H   H20       1.0  0.26457  0.49746  0.70244  1.0000 0.1322822972
H   H21       1.0  0.29756  0.76457  0.00254  1.0000 0.1322822972
H   H22       1.0  0.50254  0.20244  0.23543  1.0000 0.1322822972
H   H23       1.0  0.49746  0.70244  0.26457  1.0000 0.1322822972
H   H24       1.0  0.00254  0.29756  0.76457  1.0000 0.1322822972
H   H25       1.0  0.00332  0.79366  0.51240  1.0000 0.1445461242
H   H26       1.0  0.51240  0.00332  0.79366  1.0000 0.1445461242
H   H27       1.0  0.79366  0.51240  0.00332  1.0000 0.1445461242
H   H28       1.0  0.70634  0.48760  0.50332  1.0000 0.1445461242
H   H29       1.0  0.01240  0.49668  0.20634  1.0000 0.1445461242
H   H30       1.0  0.20634  0.01240  0.49668  1.0000 0.1445461242
H   H31       1.0  0.98760  0.99668  0.29366  1.0000 0.1445461242
H   H32       1.0  0.48760  0.50332  0.70634  1.0000 0.1445461242
H   H33       1.0  0.29366  0.98760  0.99668  1.0000 0.1445461242
H   H34       1.0  0.49668  0.20634  0.01240  1.0000 0.1445461242
H   H35       1.0  0.50332  0.70634  0.48760  1.0000 0.1445461242
H   H36       1.0  0.99668  0.29366  0.98760  1.0000 0.1445461242
C   C1        1.0  0.02260  0.65520  0.76390  1.0000 0.6013152255
C   C2        1.0  0.76390  0.02260  0.65520  1.0000 0.6013152255
C   C3        1.0  0.65520  0.76390  0.02260  1.0000 0.6013152255
C   C4        1.0  0.84480  0.23610  0.52260  1.0000 0.6013152255
C   C5        1.0  0.26390  0.47740  0.34480  1.0000 0.6013152255
C   C6        1.0  0.34480  0.26390  0.47740  1.0000 0.6013152255
C   C7        1.0  0.73610  0.97740  0.15520  1.0000 0.6013152255
C   C8        1.0  0.23610  0.52260  0.84480  1.0000 0.6013152255
C   C9        1.0  0.15520  0.73610  0.97740  1.0000 0.6013152255
C   C10       1.0  0.47740  0.34480  0.26390  1.0000 0.6013152255
C   C11       1.0  0.52260  0.84480  0.23610  1.0000 0.6013152255
C   C12       1.0  0.97740  0.15520  0.73610  1.0000 0.6013152255
C   C13       1.0  0.01750  0.69550  0.69220  1.0000 -0.0104634677
C   C14       1.0  0.69220  0.01750  0.69550  1.0000 -0.0104634677
C   C15       1.0  0.69550  0.69220  0.01750  1.0000 -0.0104634677
C   C16       1.0  0.80450  0.30780  0.51750  1.0000 -0.0104634677
C   C17       1.0  0.19220  0.48250  0.30450  1.0000 -0.0104634677
C   C18       1.0  0.30450  0.19220  0.48250  1.0000 -0.0104634677
C   C19       1.0  0.80780  0.98250  0.19550  1.0000 -0.0104634677
C   C20       1.0  0.30780  0.51750  0.80450  1.0000 -0.0104634677
C   C21       1.0  0.19550  0.80780  0.98250  1.0000 -0.0104634677
C   C22       1.0  0.48250  0.30450  0.19220  1.0000 -0.0104634677
C   C23       1.0  0.51750  0.80450  0.30780  1.0000 -0.0104634677
C   C24       1.0  0.98250  0.19550  0.80780  1.0000 -0.0104634677
C   C25       1.0  0.99130  0.60120  0.47530  1.0000 0.5345095051
C   C26       1.0  0.47530  0.99130  0.60120  1.0000 0.5345095051
C   C27       1.0  0.60120  0.47530  0.99130  1.0000 0.5345095051
C   C28       1.0  0.89880  0.52470  0.49130  1.0000 0.5345095051
C   C29       1.0  0.97530  0.50870  0.39880  1.0000 0.5345095051
C   C30       1.0  0.39880  0.97530  0.50870  1.0000 0.5345095051
C   C31       1.0  0.02470  0.00870  0.10120  1.0000 0.5345095051
C   C32       1.0  0.52470  0.49130  0.89880  1.0000 0.5345095051
C   C33       1.0  0.10120  0.02470  0.00870  1.0000 0.5345095051
C   C34       1.0  0.50870  0.39880  0.97530  1.0000 0.5345095051
C   C35       1.0  0.49130  0.89880  0.52470  1.0000 0.5345095051
C   C36       1.0  0.00870  0.10120  0.02470  1.0000 0.5345095051
C   C37       1.0  0.02550  0.65740  0.62680  1.0000 -0.1914264234
C   C38       1.0  0.62680  0.02550  0.65740  1.0000 -0.1914264234
C   C39       1.0  0.65740  0.62680  0.02550  1.0000 -0.1914264234
C   C40       1.0  0.84260  0.37320  0.52550  1.0000 -0.1914264234
C   C41       1.0  0.12680  0.47450  0.34260  1.0000 -0.1914264234
C   C42       1.0  0.34260  0.12680  0.47450  1.0000 -0.1914264234
C   C43       1.0  0.87320  0.97450  0.15740  1.0000 -0.1914264234
C   C44       1.0  0.37320  0.52550  0.84260  1.0000 -0.1914264234
C   C45       1.0  0.15740  0.87320  0.97450  1.0000 -0.1914264234
C   C46       1.0  0.47450  0.34260  0.12680  1.0000 -0.1914264234
C   C47       1.0  0.52550  0.84260  0.37320  1.0000 -0.1914264234
C   C48       1.0  0.97450  0.15740  0.87320  1.0000 -0.1914264234
C   C49       1.0  0.02060  0.69370  0.56130  1.0000 0.2552247349
C   C50       1.0  0.56130  0.02060  0.69370  1.0000 0.2552247349
C   C51       1.0  0.69370  0.56130  0.02060  1.0000 0.2552247349
C   C52       1.0  0.80630  0.43870  0.52060  1.0000 0.2552247349
C   C53       1.0  0.06130  0.47940  0.30630  1.0000 0.2552247349
C   C54       1.0  0.30630  0.06130  0.47940  1.0000 0.2552247349
C   C55       1.0  0.93870  0.97940  0.19370  1.0000 0.2552247349
C   C56       1.0  0.43870  0.52060  0.80630  1.0000 0.2552247349
C   C57       1.0  0.19370  0.93870  0.97940  1.0000 0.2552247349
C   C58       1.0  0.47940  0.30630  0.06130  1.0000 0.2552247349
C   C59       1.0  0.52060  0.80630  0.43870  1.0000 0.2552247349
C   C60       1.0  0.97940  0.19370  0.93870  1.0000 0.2552247349
C   C61       1.0  0.98550  0.88860  0.62010  1.0000 0.5209015313
C   C62       1.0  0.62010  0.98550  0.88860  1.0000 0.5209015313
C   C63       1.0  0.88860  0.62010  0.98550  1.0000 0.5209015313
C   C64       1.0  0.61140  0.37990  0.48550  1.0000 0.5209015313
C   C65       1.0  0.12010  0.51450  0.11140  1.0000 0.5209015313
C   C66       1.0  0.11140  0.12010  0.51450  1.0000 0.5209015313
C   C67       1.0  0.87990  0.01450  0.38860  1.0000 0.5209015313
C   C68       1.0  0.37990  0.48550  0.61140  1.0000 0.5209015313
C   C69       1.0  0.38860  0.87990  0.01450  1.0000 0.5209015313
C   C70       1.0  0.51450  0.11140  0.12010  1.0000 0.5209015313
C   C71       1.0  0.48550  0.61140  0.37990  1.0000 0.5209015313
C   C72       1.0  0.01450  0.38860  0.87990  1.0000 0.5209015313
C   C73       1.0  0.00420  0.77110  0.69090  1.0000 -0.1148113655
C   C74       1.0  0.69090  0.00420  0.77110  1.0000 -0.1148113655
C   C75       1.0  0.77110  0.69090  0.00420  1.0000 -0.115693477
C   C76       1.0  0.72890  0.30910  0.50420  1.0000 -0.1148113655
C   C77       1.0  0.19090  0.49580  0.22890  1.0000 -0.1148113655
C   C78       1.0  0.22890  0.19090  0.49580  1.0000 -0.1148113655
C   C79       1.0  0.80910  0.99580  0.27110  1.0000 -0.115693477
C   C80       1.0  0.30910  0.50420  0.72890  1.0000 -0.1148113655
C   C81       1.0  0.27110  0.80910  0.99580  1.0000 -0.1148113655
C   C82       1.0  0.49580  0.22890  0.19090  1.0000 -0.1148113655
C   C83       1.0  0.50420  0.72890  0.30910  1.0000 -0.1148113655
C   C84       1.0  0.99580  0.27110  0.80910  1.0000 -0.1148113655
C   C85       1.0  0.00760  0.76900  0.55830  1.0000 -0.1914264234
C   C86       1.0  0.55830  0.00760  0.76900  1.0000 -0.1914264234
C   C87       1.0  0.76900  0.55830  0.00760  1.0000 -0.1914264234
C   C88       1.0  0.73100  0.44170  0.50760  1.0000 -0.1914264234
C   C89       1.0  0.05830  0.49240  0.23100  1.0000 -0.1914264234
C   C90       1.0  0.23100  0.05830  0.49240  1.0000 -0.1914264234
C   C91       1.0  0.94170  0.99240  0.26900  1.0000 -0.1914264234
C   C92       1.0  0.44170  0.50760  0.73100  1.0000 -0.1914264234
C   C93       1.0  0.26900  0.94170  0.99240  1.0000 -0.1914264234
C   C94       1.0  0.49240  0.23100  0.05830  1.0000 -0.1914264234
C   C95       1.0  0.50760  0.73100  0.44170  1.0000 -0.1914264234
C   C96       1.0  0.99240  0.26900  0.94170  1.0000 -0.1914264234
C   C97       1.0  0.00100  0.80710  0.62360  1.0000 -0.0104634677
C   C98       1.0  0.62360  0.00100  0.80710  1.0000 -0.0104634677
C   C99       1.0  0.80710  0.62360  0.00100  1.0000 -0.0104634677
C   C100      1.0  0.69290  0.37640  0.50100  1.0000 -0.0104634677
C   C101      1.0  0.12360  0.49900  0.19290  1.0000 -0.0104634677
C   C102      1.0  0.19290  0.12360  0.49900  1.0000 -0.0104634677
C   C103      1.0  0.87640  0.99900  0.30710  1.0000 -0.0104634677
C   C104      1.0  0.37640  0.50100  0.69290  1.0000 -0.0104634677
C   C105      1.0  0.30710  0.87640  0.99900  1.0000 -0.0104634677
C   C106      1.0  0.49900  0.19290  0.12360  1.0000 -0.0104634677
C   C107      1.0  0.50100  0.69290  0.37640  1.0000 -0.0104634677
C   C108      1.0  0.99900  0.30710  0.87640  1.0000 -0.0104634677
N   N1        1.0  0.01580  0.56710  0.41580  1.0000 -0.4672010984
N   N2        1.0  0.41580  0.01580  0.56710  1.0000 -0.4672010984
N   N3        1.0  0.56710  0.41580  0.01580  1.0000 -0.4672010984
N   N4        1.0  0.93290  0.58420  0.51580  1.0000 -0.4672010984
N   N5        1.0  0.91580  0.48420  0.43290  1.0000 -0.4672010984
N   N6        1.0  0.43290  0.91580  0.48420  1.0000 -0.4672010984
N   N7        1.0  0.08420  0.98420  0.06710  1.0000 -0.4672010984
N   N8        1.0  0.58420  0.51580  0.93290  1.0000 -0.4672010984
N   N9        1.0  0.06710  0.08420  0.98420  1.0000 -0.4672010984
N   N10       1.0  0.48420  0.43290  0.91580  1.0000 -0.4672010984
N   N11       1.0  0.51580  0.93290  0.58420  1.0000 -0.4672010984
N   N12       1.0  0.98420  0.06710  0.08420  1.0000 -0.4672010984
O   O1        1.0  0.93406  0.06594  0.56594  1.0000 -0.9395656036
O   O2        1.0  0.56594  0.93406  0.06594  1.0000 -0.9395656036
O   O3        1.0  0.06594  0.56594  0.93406  1.0000 -0.9395656036
O   O4        1.0  0.43406  0.43406  0.43406  1.0000 -0.9395656036
O   O5        1.0  0.03230  0.65940  0.49397  1.0000 -0.2317180394
O   O6        1.0  0.49397  0.03230  0.65940  1.0000 -0.2317180394
O   O7        1.0  0.65940  0.49397  0.03230  1.0000 -0.2317180394
O   O8        1.0  0.84060  0.50603  0.53230  1.0000 -0.2317180394
O   O9        1.0  0.99397  0.46770  0.34060  1.0000 -0.2317180394
O   O10       1.0  0.34060  0.99397  0.46770  1.0000 -0.2317180394
O   O11       1.0  0.00603  0.96770  0.15940  1.0000 -0.2317180394
O   O12       1.0  0.50603  0.53230  0.84060  1.0000 -0.2317180394
O   O13       1.0  0.15940  0.00603  0.96770  1.0000 -0.2317180394
O   O14       1.0  0.46770  0.34060  0.99397  1.0000 -0.2317180394
O   O15       1.0  0.53230  0.84060  0.50603  1.0000 -0.2317180394
O   O16       1.0  0.96770  0.15940  0.00603  1.0000 -0.2317180394
O   O17       1.0  0.96270  0.92060  0.67540  1.0000 -0.4109880374
O   O18       1.0  0.67540  0.96270  0.92060  1.0000 -0.4109880374
O   O19       1.0  0.92060  0.67540  0.96270  1.0000 -0.4109880374
O   O20       1.0  0.57940  0.32460  0.46270  1.0000 -0.4109880374
O   O21       1.0  0.17540  0.53730  0.07940  1.0000 -0.4109880374
O   O22       1.0  0.07940  0.17540  0.53730  1.0000 -0.4109880374
O   O23       1.0  0.82460  0.03730  0.42060  1.0000 -0.4109880374
O   O24       1.0  0.32460  0.46270  0.57940  1.0000 -0.4109880374
O   O25       1.0  0.42060  0.82460  0.03730  1.0000 -0.4109880374
O   O26       1.0  0.53730  0.07940  0.17540  1.0000 -0.4109880374
O   O27       1.0  0.46270  0.57940  0.32460  1.0000 -0.4109880374
O   O28       1.0  0.03730  0.42060  0.82460  1.0000 -0.4109880374
O   O29       1.0  0.01640  0.69292  0.82205  1.0000 -0.5319181727
O   O30       1.0  0.82205  0.01640  0.69292  1.0000 -0.5319181727
O   O31       1.0  0.69292  0.82205  0.01640  1.0000 -0.5319181727
O   O32       1.0  0.80708  0.17795  0.51640  1.0000 -0.5319181727
O   O33       1.0  0.32205  0.48360  0.30708  1.0000 -0.5319181727
O   O34       1.0  0.30708  0.32205  0.48360  1.0000 -0.5319181727
O   O35       1.0  0.67795  0.98360  0.19292  1.0000 -0.5319181727
O   O36       1.0  0.17795  0.51640  0.80708  1.0000 -0.5319181727
O   O37       1.0  0.19292  0.67795  0.98360  1.0000 -0.5319181727
O   O38       1.0  0.48360  0.30708  0.32205  1.0000 -0.5319181727
O   O39       1.0  0.51640  0.80708  0.17795  1.0000 -0.5319181727
O   O40       1.0  0.98360  0.19292  0.67795  1.0000 -0.5319181727
O   O41       1.0  0.03630  0.58755  0.76061  1.0000 -0.5319181727
O   O42       1.0  0.76061  0.03630  0.58755  1.0000 -0.5319181727
O   O43       1.0  0.58755  0.76061  0.03630  1.0000 -0.5319181727
O   O44       1.0  0.91245  0.23939  0.53630  1.0000 -0.5319181727
O   O45       1.0  0.26061  0.46370  0.41245  1.0000 -0.5319181727
O   O46       1.0  0.41245  0.26061  0.46370  1.0000 -0.5319181727
O   O47       1.0  0.73939  0.96370  0.08755  1.0000 -0.5319181727
O   O48       1.0  0.23939  0.53630  0.91245  1.0000 -0.5319181727
O   O49       1.0  0.08755  0.73939  0.96370  1.0000 -0.5319181727
O   O50       1.0  0.46370  0.41245  0.26061  1.0000 -0.5319181727
O   O51       1.0  0.53630  0.91245  0.23939  1.0000 -0.5319181727
O   O52       1.0  0.96370  0.08755  0.73939  1.0000 -0.5319181727
O   O53       1.0  0.94140  0.91380  0.56200  0.4200 -0.2352606999
O   O54       1.0  0.56200  0.94140  0.91380  0.4200 -0.2352606999
O   O55       1.0  0.91380  0.56200  0.94140  0.4200 -0.2352606999
O   O56       1.0  0.58620  0.43800  0.44140  0.4200 -0.2352606999
O   O57       1.0  0.06200  0.55860  0.08620  0.4200 -0.2352606999
O   O58       1.0  0.08620  0.06200  0.55860  0.4200 -0.2352606999
O   O59       1.0  0.93800  0.05860  0.41380  0.4200 -0.2352606999
O   O60       1.0  0.43800  0.44140  0.58620  0.4200 -0.2352606999
O   O61       1.0  0.41380  0.93800  0.05860  0.4200 -0.2352606999
O   O62       1.0  0.55860  0.08620  0.06200  0.4200 -0.2352606999
O   O63       1.0  0.44140  0.58620  0.43800  0.4200 -0.2352606999
O   O64       1.0  0.05860  0.41380  0.93800  0.4200 -0.2352606999
O   O65       1.0  0.01730  0.92160  0.56150  0.5800 -0.2989216245
O   O66       1.0  0.56150  0.01730  0.92160  0.5800 -0.2989216245
O   O67       1.0  0.92160  0.56150  0.01730  0.5800 -0.2989216245
O   O68       1.0  0.57840  0.43850  0.51730  0.5800 -0.2989216245
O   O69       1.0  0.06150  0.48270  0.07840  0.5800 -0.2989216245
O   O70       1.0  0.07840  0.06150  0.48270  0.5800 -0.2989216245
O   O71       1.0  0.93850  0.98270  0.42160  0.5800 -0.2989216245
O   O72       1.0  0.43850  0.51730  0.57840  0.5800 -0.2989216245
O   O73       1.0  0.42160  0.93850  0.98270  0.5800 -0.2989216245
O   O74       1.0  0.48270  0.07840  0.06150  0.5800 -0.2989216245
O   O75       1.0  0.51730  0.57840  0.43850  0.5800 -0.2989216245
O   O76       1.0  0.98270  0.42160  0.93850  0.5800 -0.2989216245
