# DDEC6 charges by PACMAN v1.1 (https://github.com/mtap-research/PACMAN-charge/)
data_d3ce00787a2_2_ASR_pacman
_symmetry_space_group_name_H-M   'P 1'
_cell_length_a   13.36340000
_cell_length_b   13.36340000
_cell_length_c   30.76340000
_cell_angle_alpha   90.00000000
_cell_angle_beta   90.00000000
_cell_angle_gamma   90.00000000
_symmetry_Int_Tables_number   1
_chemical_formula_structural   ZnH5C7SN3O2
_chemical_formula_sum   'Zn16 H80.0 C112 S16.0 N48 O32'
_cell_volume   5493.74210963
_cell_formula_units_Z   16
loop_
 _symmetry_equiv_pos_site_id
 _symmetry_equiv_pos_as_xyz
  1  'x, y, z'
loop_
 _atom_site_type_symbol
 _atom_site_label
 _atom_site_symmetry_multiplicity
 _atom_site_fract_x
 _atom_site_fract_y
 _atom_site_fract_z
 _atom_site_occupancy
 _atom_site_charge
Zn  Zn1  1  0.72709000  0.66288000  0.54761000  1.0 0.6569480049
Zn  Zn2  1  0.27291000  0.33712000  0.54761000  1.0 0.6569480049
Zn  Zn3  1  0.83712000  0.22709000  0.54761000  1.0 0.6569480049
Zn  Zn4  1  0.16288000  0.77291000  0.54761000  1.0 0.6569480049
Zn  Zn5  1  0.77291000  0.16288000  0.95239000  1.0 0.6569480049
Zn  Zn6  1  0.22709000  0.83712000  0.95239000  1.0 0.6569480049
Zn  Zn7  1  0.66288000  0.72709000  0.95239000  1.0 0.6569480049
Zn  Zn8  1  0.33712000  0.27291000  0.95239000  1.0 0.6569480049
Zn  Zn9  1  0.77291000  0.83712000  0.45239000  1.0 0.6569480049
Zn  Zn10  1  0.22709000  0.16288000  0.45239000  1.0 0.6569480049
Zn  Zn11  1  0.66288000  0.27291000  0.45239000  1.0 0.6569480049
Zn  Zn12  1  0.33712000  0.72709000  0.45239000  1.0 0.6569480049
Zn  Zn13  1  0.72709000  0.33712000  0.04761000  1.0 0.6569480049
Zn  Zn14  1  0.27291000  0.66288000  0.04761000  1.0 0.6569480049
Zn  Zn15  1  0.83712000  0.77291000  0.04761000  1.0 0.6569480049
Zn  Zn16  1  0.16288000  0.22709000  0.04761000  1.0 0.6569480049
H  H1  1  0.65127000  0.50357000  0.47660000  1.0 0.104714165
H  H2  1  0.34873000  0.49643000  0.47660000  1.0 0.104714165
H  H3  1  0.99643000  0.15127000  0.47660000  1.0 0.104714165
H  H4  1  0.00357000  0.84873000  0.47660000  1.0 0.104714165
H  H5  1  0.84873000  0.00357000  0.02340000  1.0 0.104714165
H  H6  1  0.15127000  0.99643000  0.02340000  1.0 0.104714165
H  H7  1  0.50357000  0.65127000  0.02340000  1.0 0.104714165
H  H8  1  0.49643000  0.34873000  0.02340000  1.0 0.104714165
H  H9  1  0.84873000  0.99643000  0.52340000  1.0 0.104714165
H  H10  1  0.15127000  0.00357000  0.52340000  1.0 0.104714165
H  H11  1  0.50357000  0.34873000  0.52340000  1.0 0.104714165
H  H12  1  0.49643000  0.65127000  0.52340000  1.0 0.104714165
H  H13  1  0.65127000  0.49643000  0.97660000  1.0 0.104714165
H  H14  1  0.34873000  0.50357000  0.97660000  1.0 0.104714165
H  H15  1  0.99643000  0.84873000  0.97660000  1.0 0.104714165
H  H16  1  0.00357000  0.15127000  0.97660000  1.0 0.104714165
H  H17  1  0.82146000  0.45271000  0.57632000  1.0 0.1188945519
H  H18  1  0.17854000  0.54729000  0.57632000  1.0 0.1188945519
H  H19  1  0.04729000  0.32146000  0.57632000  1.0 0.1188945519
H  H20  1  0.95271000  0.67854000  0.57632000  1.0 0.1188945519
H  H21  1  0.67854000  0.95271000  0.92368000  1.0 0.1188945519
H  H22  1  0.32146000  0.04729000  0.92368000  1.0 0.1188945519
H  H23  1  0.45271000  0.82146000  0.92368000  1.0 0.1188945519
H  H24  1  0.54729000  0.17854000  0.92368000  1.0 0.1188945519
H  H25  1  0.67854000  0.04729000  0.42368000  1.0 0.1188945519
H  H26  1  0.32146000  0.95271000  0.42368000  1.0 0.1188945519
H  H27  1  0.45271000  0.17854000  0.42368000  1.0 0.1188945519
H  H28  1  0.54729000  0.82146000  0.42368000  1.0 0.1188945519
H  H29  1  0.82146000  0.54729000  0.07632000  1.0 0.1188945519
H  H30  1  0.17854000  0.45271000  0.07632000  1.0 0.1188945519
H  H31  1  0.04729000  0.67854000  0.07632000  1.0 0.1188945519
H  H32  1  0.95271000  0.32146000  0.07632000  1.0 0.1188945519
H  H33  1  0.54521000  0.83675000  0.70881000  0.48 0.0710500377
H  H34  1  0.45479000  0.16325000  0.70881000  0.48 0.0710500377
H  H35  1  0.66325000  0.04521000  0.70881000  0.48 0.0710500377
H  H36  1  0.33675000  0.95479000  0.70881000  0.48 0.0710500377
H  H37  1  0.95479000  0.33675000  0.79119000  0.48 0.0710500377
H  H38  1  0.04521000  0.66325000  0.79119000  0.48 0.0710500377
H  H39  1  0.83675000  0.54521000  0.79119000  0.48 0.0710500377
H  H40  1  0.16325000  0.45479000  0.79119000  0.48 0.0710500377
H  H41  1  0.95479000  0.66325000  0.29119000  0.48 0.0710500377
H  H42  1  0.04521000  0.33675000  0.29119000  0.48 0.0710500377
H  H43  1  0.83675000  0.45479000  0.29119000  0.48 0.0710500377
H  H44  1  0.16325000  0.54521000  0.29119000  0.48 0.0710500377
H  H45  1  0.54521000  0.16325000  0.20881000  0.48 0.0710500377
H  H46  1  0.45479000  0.83675000  0.20881000  0.48 0.0710500377
H  H47  1  0.66325000  0.95479000  0.20881000  0.48 0.0710500377
H  H48  1  0.33675000  0.04521000  0.20881000  0.48 0.0710500377
H  H49  1  0.61120000  0.85590000  0.66750000  0.48 0.0710500377
H  H50  1  0.38880000  0.14410000  0.66750000  0.48 0.0710500377
H  H51  1  0.64410000  0.11120000  0.66750000  0.48 0.0710500377
H  H52  1  0.35590000  0.88880000  0.66750000  0.48 0.0710500377
H  H53  1  0.88880000  0.35590000  0.83250000  0.48 0.0710500377
H  H54  1  0.11120000  0.64410000  0.83250000  0.48 0.0710500377
H  H55  1  0.85590000  0.61120000  0.83250000  0.48 0.0710500377
H  H56  1  0.14410000  0.38880000  0.83250000  0.48 0.0710500377
H  H57  1  0.88880000  0.64410000  0.33250000  0.48 0.0710500377
H  H58  1  0.11120000  0.35590000  0.33250000  0.48 0.0710500377
H  H59  1  0.85590000  0.38880000  0.33250000  0.48 0.0710500377
H  H60  1  0.14410000  0.61120000  0.33250000  0.48 0.0710500377
H  H61  1  0.61120000  0.14410000  0.16750000  0.48 0.0710500377
H  H62  1  0.38880000  0.85590000  0.16750000  0.48 0.0710500377
H  H63  1  0.64410000  0.88880000  0.16750000  0.48 0.0710500377
H  H64  1  0.35590000  0.11120000  0.16750000  0.48 0.0710500377
H  H65  1  0.53131000  0.77001000  0.66733000  0.48 0.0878974102
H  H66  1  0.46869000  0.22999000  0.66733000  0.48 0.0878974102
H  H67  1  0.72999000  0.03131000  0.66733000  0.48 0.0878974102
H  H68  1  0.27001000  0.96869000  0.66733000  0.48 0.0878974102
H  H69  1  0.96869000  0.27001000  0.83267000  0.48 0.0878974102
H  H70  1  0.03131000  0.72999000  0.83267000  0.48 0.0878974102
H  H71  1  0.77001000  0.53131000  0.83267000  0.48 0.0878974102
H  H72  1  0.22999000  0.46869000  0.83267000  0.48 0.0878974102
H  H73  1  0.96869000  0.72999000  0.33267000  0.48 0.0878974102
H  H74  1  0.03131000  0.27001000  0.33267000  0.48 0.0878974102
H  H75  1  0.77001000  0.46869000  0.33267000  0.48 0.0878974102
H  H76  1  0.22999000  0.53131000  0.33267000  0.48 0.0878974102
H  H77  1  0.53131000  0.22999000  0.16733000  0.48 0.0878974102
H  H78  1  0.46869000  0.77001000  0.16733000  0.48 0.0878974102
H  H79  1  0.72999000  0.96869000  0.16733000  0.48 0.0878974102
H  H80  1  0.27001000  0.03131000  0.16733000  0.48 0.0878974102
H  H81  1  0.84956000  0.52992000  0.73781000  0.52 0.0610518689
H  H82  1  0.15044000  0.47008000  0.73781000  0.52 0.0610518689
H  H83  1  0.97008000  0.34956000  0.73781000  0.52 0.0610518689
H  H84  1  0.02992000  0.65044000  0.73781000  0.52 0.0610518689
H  H85  1  0.65044000  0.02992000  0.76219000  0.52 0.0610518689
H  H86  1  0.34956000  0.97008000  0.76219000  0.52 0.0610518689
H  H87  1  0.52992000  0.84956000  0.76219000  0.52 0.0610518689
H  H88  1  0.47008000  0.15044000  0.76219000  0.52 0.0610518689
H  H89  1  0.65044000  0.97008000  0.26219000  0.52 0.0610518689
H  H90  1  0.34956000  0.02992000  0.26219000  0.52 0.0610518689
H  H91  1  0.52992000  0.15044000  0.26219000  0.52 0.0610518689
H  H92  1  0.47008000  0.84956000  0.26219000  0.52 0.0610518689
H  H93  1  0.84956000  0.47008000  0.23781000  0.52 0.0610518689
H  H94  1  0.15044000  0.52992000  0.23781000  0.52 0.0610518689
H  H95  1  0.97008000  0.65044000  0.23781000  0.52 0.0610518689
H  H96  1  0.02992000  0.34956000  0.23781000  0.52 0.0610518689
H  H97  1  0.80147000  0.49364000  0.69408000  0.52 0.0793274512
H  H98  1  0.19853000  0.50636000  0.69408000  0.52 0.0793274512
H  H99  1  0.00636000  0.30147000  0.69408000  0.52 0.0793274512
H  H100  1  0.99364000  0.69853000  0.69408000  0.52 0.0793274512
H  H101  1  0.69853000  0.99364000  0.80592000  0.52 0.0793274512
H  H102  1  0.30147000  0.00636000  0.80592000  0.52 0.0793274512
H  H103  1  0.49364000  0.80147000  0.80592000  0.52 0.0793274512
H  H104  1  0.50636000  0.19853000  0.80592000  0.52 0.0793274512
H  H105  1  0.69853000  0.00636000  0.30592000  0.52 0.0793274512
H  H106  1  0.30147000  0.99364000  0.30592000  0.52 0.0793274512
H  H107  1  0.49364000  0.19853000  0.30592000  0.52 0.0793274512
H  H108  1  0.50636000  0.80147000  0.30592000  0.52 0.0793274512
H  H109  1  0.80147000  0.50636000  0.19408000  0.52 0.0793274512
H  H110  1  0.19853000  0.49364000  0.19408000  0.52 0.0793274512
H  H111  1  0.00636000  0.69853000  0.19408000  0.52 0.0793274512
H  H112  1  0.99364000  0.30147000  0.19408000  0.52 0.0793274512
H  H113  1  0.88944000  0.57123000  0.69337000  0.52 0.0610518689
H  H114  1  0.11056000  0.42877000  0.69337000  0.52 0.0610518689
H  H115  1  0.92877000  0.38944000  0.69337000  0.52 0.0610518689
H  H116  1  0.07123000  0.61056000  0.69337000  0.52 0.0610518689
H  H117  1  0.61056000  0.07123000  0.80663000  0.52 0.0610518689
H  H118  1  0.38944000  0.92877000  0.80663000  0.52 0.0610518689
H  H119  1  0.57123000  0.88944000  0.80663000  0.52 0.0610518689
H  H120  1  0.42877000  0.11056000  0.80663000  0.52 0.0610518689
H  H121  1  0.61056000  0.92877000  0.30663000  0.52 0.0610518689
H  H122  1  0.38944000  0.07123000  0.30663000  0.52 0.0610518689
H  H123  1  0.57123000  0.11056000  0.30663000  0.52 0.0610518689
H  H124  1  0.42877000  0.88944000  0.30663000  0.52 0.0610518689
H  H125  1  0.88944000  0.42877000  0.19337000  0.52 0.0610518689
H  H126  1  0.11056000  0.57123000  0.19337000  0.52 0.0610518689
H  H127  1  0.92877000  0.61056000  0.19337000  0.52 0.0610518689
H  H128  1  0.07123000  0.38944000  0.19337000  0.52 0.0610518689
C  C1  1  0.73270000  0.66300000  0.62989000  1.0 0.523944688
C  C2  1  0.26730000  0.33700000  0.62989000  1.0 0.523944688
C  C3  1  0.83700000  0.23270000  0.62989000  1.0 0.523944688
C  C4  1  0.16300000  0.76730000  0.62989000  1.0 0.523944688
C  C5  1  0.76730000  0.16300000  0.87011000  1.0 0.523944688
C  C6  1  0.23270000  0.83700000  0.87011000  1.0 0.523944688
C  C7  1  0.66300000  0.73270000  0.87011000  1.0 0.523944688
C  C8  1  0.33700000  0.26730000  0.87011000  1.0 0.523944688
C  C9  1  0.76730000  0.83700000  0.37011000  1.0 0.523944688
C  C10  1  0.23270000  0.16300000  0.37011000  1.0 0.523944688
C  C11  1  0.66300000  0.26730000  0.37011000  1.0 0.523944688
C  C12  1  0.33700000  0.73270000  0.37011000  1.0 0.523944688
C  C13  1  0.73270000  0.33700000  0.12989000  1.0 0.523944688
C  C14  1  0.26730000  0.66300000  0.12989000  1.0 0.523944688
C  C15  1  0.83700000  0.76730000  0.12989000  1.0 0.523944688
C  C16  1  0.16300000  0.23270000  0.12989000  1.0 0.523944688
C  C17  1  0.71700000  0.67730000  0.67764000  1.0 -0.088679566
C  C18  1  0.28300000  0.32270000  0.67764000  1.0 -0.088679566
C  C19  1  0.82270000  0.21700000  0.67764000  1.0 -0.088679566
C  C20  1  0.17730000  0.78300000  0.67764000  1.0 -0.088679566
C  C21  1  0.78300000  0.17730000  0.82236000  1.0 -0.088679566
C  C22  1  0.21700000  0.82270000  0.82236000  1.0 -0.088679566
C  C23  1  0.67730000  0.71700000  0.82236000  1.0 -0.088679566
C  C24  1  0.32270000  0.28300000  0.82236000  1.0 -0.088679566
C  C25  1  0.78300000  0.82270000  0.32236000  1.0 -0.088679566
C  C26  1  0.21700000  0.17730000  0.32236000  1.0 -0.088679566
C  C27  1  0.67730000  0.28300000  0.32236000  1.0 -0.088679566
C  C28  1  0.32270000  0.71700000  0.32236000  1.0 -0.088679566
C  C29  1  0.71700000  0.32270000  0.17764000  1.0 -0.088679566
C  C30  1  0.28300000  0.67730000  0.17764000  1.0 -0.088679566
C  C31  1  0.82270000  0.78300000  0.17764000  1.0 -0.088679566
C  C32  1  0.17730000  0.21700000  0.17764000  1.0 -0.088679566
C  C33  1  0.66260000  0.73220000  0.74654000  1.0 -0.1458302541
C  C34  1  0.33740000  0.26780000  0.74654000  1.0 -0.1458302541
C  C35  1  0.76780000  0.16260000  0.74654000  1.0 -0.1458302541
C  C36  1  0.23220000  0.83740000  0.74654000  1.0 -0.1458302541
C  C37  1  0.83740000  0.23220000  0.75346000  1.0 -0.1458302541
C  C38  1  0.16260000  0.76780000  0.75346000  1.0 -0.1458302541
C  C39  1  0.73220000  0.66260000  0.75346000  1.0 -0.1458302541
C  C40  1  0.26780000  0.33740000  0.75346000  1.0 -0.1458302541
C  C41  1  0.83740000  0.76780000  0.25346000  1.0 -0.1458302541
C  C42  1  0.16260000  0.23220000  0.25346000  1.0 -0.1458302541
C  C43  1  0.73220000  0.33740000  0.25346000  1.0 -0.1458302541
C  C44  1  0.26780000  0.66260000  0.25346000  1.0 -0.1458302541
C  C45  1  0.66260000  0.26780000  0.24654000  1.0 -0.1458302541
C  C46  1  0.33740000  0.73220000  0.24654000  1.0 -0.1458302541
C  C47  1  0.76780000  0.83740000  0.24654000  1.0 -0.1458302541
C  C48  1  0.23220000  0.16260000  0.24654000  1.0 -0.1458302541
C  C49  1  0.69100000  0.47144000  0.49713000  1.0 0.1296142871
C  C50  1  0.30900000  0.52856000  0.49713000  1.0 0.1296142871
C  C51  1  0.02856000  0.19100000  0.49713000  1.0 0.1296142871
C  C52  1  0.97144000  0.80900000  0.49713000  1.0 0.1296142871
C  C53  1  0.80900000  0.97144000  0.00287000  1.0 0.1296142871
C  C54  1  0.19100000  0.02856000  0.00287000  1.0 0.1296142871
C  C55  1  0.47144000  0.69100000  0.00287000  1.0 0.1296142871
C  C56  1  0.52856000  0.30900000  0.00287000  1.0 0.1296142871
C  C57  1  0.80900000  0.02856000  0.50287000  1.0 0.1296142871
C  C58  1  0.19100000  0.97144000  0.50287000  1.0 0.1296142871
C  C59  1  0.47144000  0.30900000  0.50287000  1.0 0.1296142871
C  C60  1  0.52856000  0.69100000  0.50287000  1.0 0.1296142871
C  C61  1  0.69100000  0.52856000  0.99713000  1.0 0.1296142871
C  C62  1  0.30900000  0.47144000  0.99713000  1.0 0.1296142871
C  C63  1  0.02856000  0.80900000  0.99713000  1.0 0.1296142871
C  C64  1  0.97144000  0.19100000  0.99713000  1.0 0.1296142871
C  C65  1  0.78310000  0.44380000  0.55138000  1.0 0.1495072861
C  C66  1  0.21690000  0.55620000  0.55138000  1.0 0.1495072861
C  C67  1  0.05620000  0.28310000  0.55138000  1.0 0.1495072861
C  C68  1  0.94380000  0.71690000  0.55138000  1.0 0.1495072861
C  C69  1  0.71690000  0.94380000  0.94862000  1.0 0.1495072861
C  C70  1  0.28310000  0.05620000  0.94862000  1.0 0.1495072861
C  C71  1  0.44380000  0.78310000  0.94862000  1.0 0.1495072861
C  C72  1  0.55620000  0.21690000  0.94862000  1.0 0.1495072861
C  C73  1  0.71690000  0.05620000  0.44862000  1.0 0.1495072861
C  C74  1  0.28310000  0.94380000  0.44862000  1.0 0.1495072861
C  C75  1  0.44380000  0.21690000  0.44862000  1.0 0.1495072861
C  C76  1  0.55620000  0.78310000  0.44862000  1.0 0.1495072861
C  C77  1  0.78310000  0.55620000  0.05138000  1.0 0.1495072861
C  C78  1  0.21690000  0.44380000  0.05138000  1.0 0.1495072861
C  C79  1  0.05620000  0.71690000  0.05138000  1.0 0.1495072861
C  C80  1  0.94380000  0.28310000  0.05138000  1.0 0.1495072861
C  C81  1  0.75590000  0.63480000  0.71110000  0.52 0.0504562573
C  C82  1  0.24410000  0.36520000  0.71110000  0.52 0.0504562573
C  C83  1  0.86520000  0.25590000  0.71110000  0.52 0.0504562573
C  C84  1  0.13480000  0.74410000  0.71110000  0.52 0.0504562573
C  C85  1  0.74410000  0.13480000  0.78890000  0.52 0.0504562573
C  C86  1  0.25590000  0.86520000  0.78890000  0.52 0.0504562573
C  C87  1  0.63480000  0.75590000  0.78890000  0.52 0.0504562573
C  C88  1  0.36520000  0.24410000  0.78890000  0.52 0.0504562573
C  C89  1  0.74410000  0.86520000  0.28890000  0.52 0.0504562573
C  C90  1  0.25590000  0.13480000  0.28890000  0.52 0.0504562573
C  C91  1  0.63480000  0.24410000  0.28890000  0.52 0.0504562573
C  C92  1  0.36520000  0.75590000  0.28890000  0.52 0.0504562573
C  C93  1  0.75590000  0.36520000  0.21110000  0.52 0.0504562573
C  C94  1  0.24410000  0.63480000  0.21110000  0.52 0.0504562573
C  C95  1  0.86520000  0.74410000  0.21110000  0.52 0.0504562573
C  C96  1  0.13480000  0.25590000  0.21110000  0.52 0.0504562573
C  C97  1  0.83100000  0.54950000  0.70890000  0.52 -0.2220897777
C  C98  1  0.16900000  0.45050000  0.70890000  0.52 -0.2220897777
C  C99  1  0.95050000  0.33100000  0.70890000  0.52 -0.2220897777
C  C100  1  0.04950000  0.66900000  0.70890000  0.52 -0.2220897777
C  C101  1  0.66900000  0.04950000  0.79110000  0.52 -0.2220897777
C  C102  1  0.33100000  0.95050000  0.79110000  0.52 -0.2220897777
C  C103  1  0.54950000  0.83100000  0.79110000  0.52 -0.2220897777
C  C104  1  0.45050000  0.16900000  0.79110000  0.52 -0.2220897777
C  C105  1  0.66900000  0.95050000  0.29110000  0.52 -0.2220897777
C  C106  1  0.33100000  0.04950000  0.29110000  0.52 -0.2220897777
C  C107  1  0.54950000  0.16900000  0.29110000  0.52 -0.2220897777
C  C108  1  0.45050000  0.83100000  0.29110000  0.52 -0.2220897777
C  C109  1  0.83100000  0.45050000  0.20890000  0.52 -0.2220897777
C  C110  1  0.16900000  0.54950000  0.20890000  0.52 -0.2220897777
C  C111  1  0.95050000  0.66900000  0.20890000  0.52 -0.2220897777
C  C112  1  0.04950000  0.33100000  0.20890000  0.52 -0.2220897777
C  C113  1  0.66110000  0.72900000  0.70290000  0.48 0.0504562573
C  C114  1  0.33890000  0.27100000  0.70290000  0.48 0.0504562573
C  C115  1  0.77100000  0.16110000  0.70290000  0.48 0.0504562573
C  C116  1  0.22900000  0.83890000  0.70290000  0.48 0.0504562573
C  C117  1  0.83890000  0.22900000  0.79710000  0.48 0.0504562573
C  C118  1  0.16110000  0.77100000  0.79710000  0.48 0.0504562573
C  C119  1  0.72900000  0.66110000  0.79710000  0.48 0.0504562573
C  C120  1  0.27100000  0.33890000  0.79710000  0.48 0.0504562573
C  C121  1  0.83890000  0.77100000  0.29710000  0.48 0.0504562573
C  C122  1  0.16110000  0.22900000  0.29710000  0.48 0.0504562573
C  C123  1  0.72900000  0.33890000  0.29710000  0.48 0.0504562573
C  C124  1  0.27100000  0.66110000  0.29710000  0.48 0.0504562573
C  C125  1  0.66110000  0.27100000  0.20290000  0.48 0.0504562573
C  C126  1  0.33890000  0.72900000  0.20290000  0.48 0.0504562573
C  C127  1  0.77100000  0.83890000  0.20290000  0.48 0.0504562573
C  C128  1  0.22900000  0.16110000  0.20290000  0.48 0.0504562573
C  C129  1  0.57900000  0.80560000  0.68480000  0.48 -0.2071145391
C  C130  1  0.42100000  0.19440000  0.68480000  0.48 -0.2071145391
C  C131  1  0.69440000  0.07900000  0.68480000  0.48 -0.2071145391
C  C132  1  0.30560000  0.92100000  0.68480000  0.48 -0.2071145391
C  C133  1  0.92100000  0.30560000  0.81520000  0.48 -0.2071145391
C  C134  1  0.07900000  0.69440000  0.81520000  0.48 -0.2071145391
C  C135  1  0.80560000  0.57900000  0.81520000  0.48 -0.2071145391
C  C136  1  0.19440000  0.42100000  0.81520000  0.48 -0.2071145391
C  C137  1  0.92100000  0.69440000  0.31520000  0.48 -0.2071145391
C  C138  1  0.07900000  0.30560000  0.31520000  0.48 -0.2071145391
C  C139  1  0.80560000  0.42100000  0.31520000  0.48 -0.2071145391
C  C140  1  0.19440000  0.57900000  0.31520000  0.48 -0.2071145391
C  C141  1  0.57900000  0.19440000  0.18480000  0.48 -0.2071145391
C  C142  1  0.42100000  0.80560000  0.18480000  0.48 -0.2071145391
C  C143  1  0.69440000  0.92100000  0.18480000  0.48 -0.2071145391
C  C144  1  0.30560000  0.07900000  0.18480000  0.48 -0.2071145391
S  S1  1  0.80040000  0.59860000  0.70881000  0.48 0.0878974102
S  S2  1  0.19960000  0.40140000  0.70881000  0.48 0.0878974102
S  S3  1  0.90140000  0.30040000  0.70881000  0.48 0.0878974102
S  S4  1  0.09860000  0.69960000  0.70881000  0.48 0.0878974102
S  S5  1  0.69960000  0.09860000  0.79119000  0.48 0.0878974102
S  S6  1  0.30040000  0.90140000  0.79119000  0.48 0.0878974102
S  S7  1  0.59860000  0.80040000  0.79119000  0.48 0.0878974102
S  S8  1  0.40140000  0.19960000  0.79119000  0.48 0.0878974102
S  S9  1  0.69960000  0.90140000  0.29119000  0.48 0.0878974102
S  S10  1  0.30040000  0.09860000  0.29119000  0.48 0.0878974102
S  S11  1  0.59860000  0.19960000  0.29119000  0.48 0.0878974102
S  S12  1  0.40140000  0.80040000  0.29119000  0.48 0.0878974102
S  S13  1  0.80040000  0.40140000  0.20881000  0.48 0.0878974102
S  S14  1  0.19960000  0.59860000  0.20881000  0.48 0.0878974102
S  S15  1  0.90140000  0.69960000  0.20881000  0.48 0.0878974102
S  S16  1  0.09860000  0.30040000  0.20881000  0.48 0.0878974102
S  S17  1  0.62710000  0.77250000  0.69096000  0.52 0.0878974102
S  S18  1  0.37290000  0.22750000  0.69096000  0.52 0.0878974102
S  S19  1  0.72750000  0.12710000  0.69096000  0.52 0.0878974102
S  S20  1  0.27250000  0.87290000  0.69096000  0.52 0.0878974102
S  S21  1  0.87290000  0.27250000  0.80904000  0.52 0.0793274512
S  S22  1  0.12710000  0.72750000  0.80904000  0.52 0.0793274512
S  S23  1  0.77250000  0.62710000  0.80904000  0.52 0.0793274512
S  S24  1  0.22750000  0.37290000  0.80904000  0.52 0.0793274512
S  S25  1  0.87290000  0.72750000  0.30904000  0.52 0.0878974102
S  S26  1  0.12710000  0.27250000  0.30904000  0.52 0.0878974102
S  S27  1  0.77250000  0.37290000  0.30904000  0.52 0.0878974102
S  S28  1  0.22750000  0.62710000  0.30904000  0.52 0.0878974102
S  S29  1  0.62710000  0.22750000  0.19096000  0.52 0.0793274512
S  S30  1  0.37290000  0.77250000  0.19096000  0.52 0.0878974102
S  S31  1  0.72750000  0.87290000  0.19096000  0.52 0.0878974102
S  S32  1  0.27250000  0.12710000  0.19096000  0.52 0.0793274512
N  N1  1  0.71233000  0.37563000  0.49596000  1.0 -0.19903317
N  N2  1  0.28767000  0.62437000  0.49596000  1.0 -0.19903317
N  N3  1  0.12437000  0.21233000  0.49596000  1.0 -0.19903317
N  N4  1  0.87563000  0.78767000  0.49596000  1.0 -0.19903317
N  N5  1  0.78767000  0.87563000  0.00404000  1.0 -0.19903317
N  N6  1  0.21233000  0.12437000  0.00404000  1.0 -0.19903317
N  N7  1  0.37563000  0.71233000  0.00404000  1.0 -0.19903317
N  N8  1  0.62437000  0.28767000  0.00404000  1.0 -0.19903317
N  N9  1  0.78767000  0.12437000  0.50404000  1.0 -0.19903317
N  N10  1  0.21233000  0.87563000  0.50404000  1.0 -0.19903317
N  N11  1  0.37563000  0.28767000  0.50404000  1.0 -0.19903317
N  N12  1  0.62437000  0.71233000  0.50404000  1.0 -0.19903317
N  N13  1  0.71233000  0.62437000  0.99596000  1.0 -0.19903317
N  N14  1  0.28767000  0.37563000  0.99596000  1.0 -0.19903317
N  N15  1  0.12437000  0.78767000  0.99596000  1.0 -0.19903317
N  N16  1  0.87563000  0.21233000  0.99596000  1.0 -0.19903317
N  N17  1  0.77147000  0.35734000  0.53146000  1.0 -0.19903317
N  N18  1  0.22853000  0.64266000  0.53146000  1.0 -0.19903317
N  N19  1  0.14266000  0.27147000  0.53146000  1.0 -0.19903317
N  N20  1  0.85734000  0.72853000  0.53146000  1.0 -0.19903317
N  N21  1  0.72853000  0.85734000  0.96854000  1.0 -0.19903317
N  N22  1  0.27147000  0.14266000  0.96854000  1.0 -0.19903317
N  N23  1  0.35734000  0.77147000  0.96854000  1.0 -0.19903317
N  N24  1  0.64266000  0.22853000  0.96854000  1.0 -0.19903317
N  N25  1  0.72853000  0.14266000  0.46854000  1.0 -0.19903317
N  N26  1  0.27147000  0.85734000  0.46854000  1.0 -0.19903317
N  N27  1  0.35734000  0.22853000  0.46854000  1.0 -0.19903317
N  N28  1  0.64266000  0.77147000  0.46854000  1.0 -0.19903317
N  N29  1  0.77147000  0.64266000  0.03146000  1.0 -0.1949663861
N  N30  1  0.22853000  0.35734000  0.03146000  1.0 -0.1949663861
N  N31  1  0.14266000  0.72853000  0.03146000  1.0 -0.1949663861
N  N32  1  0.85734000  0.27147000  0.03146000  1.0 -0.1949663861
N  N33  1  0.73270000  0.51771000  0.53116000  1.0 -0.3285116506
N  N34  1  0.26730000  0.48229000  0.53116000  1.0 -0.3285116506
N  N35  1  0.98229000  0.23270000  0.53116000  1.0 -0.3285116506
N  N36  1  0.01771000  0.76730000  0.53116000  1.0 -0.3285116506
N  N37  1  0.76730000  0.01771000  0.96884000  1.0 -0.3285116506
N  N38  1  0.23270000  0.98229000  0.96884000  1.0 -0.3285116506
N  N39  1  0.51771000  0.73270000  0.96884000  1.0 -0.3285116506
N  N40  1  0.48229000  0.26730000  0.96884000  1.0 -0.3285116506
N  N41  1  0.76730000  0.98229000  0.46884000  1.0 -0.3285116506
N  N42  1  0.23270000  0.01771000  0.46884000  1.0 -0.3285116506
N  N43  1  0.51771000  0.26730000  0.46884000  1.0 -0.3285116506
N  N44  1  0.48229000  0.73270000  0.46884000  1.0 -0.3285116506
N  N45  1  0.73270000  0.48229000  0.03116000  1.0 -0.3285116506
N  N46  1  0.26730000  0.51771000  0.03116000  1.0 -0.3285116506
N  N47  1  0.98229000  0.76730000  0.03116000  1.0 -0.3285116506
N  N48  1  0.01771000  0.23270000  0.03116000  1.0 -0.3285116506
O  O1  1  0.67240000  0.70650000  0.60458000  1.0 -0.4996349131
O  O2  1  0.32760000  0.29350000  0.60458000  1.0 -0.4996349131
O  O3  1  0.79350000  0.17240000  0.60458000  1.0 -0.4996349131
O  O4  1  0.20650000  0.82760000  0.60458000  1.0 -0.4996349131
O  O5  1  0.82760000  0.20650000  0.89542000  1.0 -0.4996349131
O  O6  1  0.17240000  0.79350000  0.89542000  1.0 -0.4996349131
O  O7  1  0.70650000  0.67240000  0.89542000  1.0 -0.4996349131
O  O8  1  0.29350000  0.32760000  0.89542000  1.0 -0.4996349131
O  O9  1  0.82760000  0.79350000  0.39542000  1.0 -0.4996349131
O  O10  1  0.17240000  0.20650000  0.39542000  1.0 -0.4996349131
O  O11  1  0.70650000  0.32760000  0.39542000  1.0 -0.4996349131
O  O12  1  0.29350000  0.67240000  0.39542000  1.0 -0.4996349131
O  O13  1  0.67240000  0.29350000  0.10458000  1.0 -0.4996349131
O  O14  1  0.32760000  0.70650000  0.10458000  1.0 -0.4996349131
O  O15  1  0.79350000  0.82760000  0.10458000  1.0 -0.4996349131
O  O16  1  0.20650000  0.17240000  0.10458000  1.0 -0.4996349131
O  O17  1  0.80250000  0.61090000  0.61695000  1.0 -0.4996349131
O  O18  1  0.19750000  0.38910000  0.61695000  1.0 -0.4996349131
O  O19  1  0.88910000  0.30250000  0.61695000  1.0 -0.4996349131
O  O20  1  0.11090000  0.69750000  0.61695000  1.0 -0.4996349131
O  O21  1  0.69750000  0.11090000  0.88305000  1.0 -0.4996349131
O  O22  1  0.30250000  0.88910000  0.88305000  1.0 -0.4996349131
O  O23  1  0.61090000  0.80250000  0.88305000  1.0 -0.4996349131
O  O24  1  0.38910000  0.19750000  0.88305000  1.0 -0.4996349131
O  O25  1  0.69750000  0.88910000  0.38305000  1.0 -0.4996349131
O  O26  1  0.30250000  0.11090000  0.38305000  1.0 -0.4996349131
O  O27  1  0.61090000  0.19750000  0.38305000  1.0 -0.4996349131
O  O28  1  0.38910000  0.80250000  0.38305000  1.0 -0.4996349131
O  O29  1  0.80250000  0.38910000  0.11695000  1.0 -0.4996349131
O  O30  1  0.19750000  0.61090000  0.11695000  1.0 -0.4996349131
O  O31  1  0.88910000  0.69750000  0.11695000  1.0 -0.4996349131
O  O32  1  0.11090000  0.30250000  0.11695000  1.0 -0.4996349131
