# DDEC6 charges by PACMAN v1.1 (https://github.com/mtap-research/PACMAN-charge/)
data_c7nj04966h2_ASR_pacman
_symmetry_space_group_name_H-M   'P 1'
_cell_length_a   14.32500000
_cell_length_b   14.32500000
_cell_length_c   14.32500000
_cell_angle_alpha   90.00000000
_cell_angle_beta   90.00000000
_cell_angle_gamma   90.00000000
_symmetry_Int_Tables_number   1
_chemical_formula_structural   Zn2H3(C3O2)3
_chemical_formula_sum   'Zn8 H12 C36 O24'
_cell_volume   2939.57057812
_cell_formula_units_Z   4
loop_
 _symmetry_equiv_pos_site_id
 _symmetry_equiv_pos_as_xyz
  1  'x, y, z'
loop_
 _atom_site_type_symbol
 _atom_site_label
 _atom_site_symmetry_multiplicity
 _atom_site_fract_x
 _atom_site_fract_y
 _atom_site_fract_z
 _atom_site_occupancy
 _atom_site_charge
Zn  Zn1  1  0.27838000  0.77838000  0.72162000  1.0 0.9191043426
Zn  Zn2  1  0.42535000  0.92535000  0.57465000  1.0 1.0048761417
Zn  Zn3  1  0.22162000  0.22162000  0.22162000  1.0 0.9191043426
Zn  Zn4  1  0.07465000  0.07465000  0.07465000  1.0 1.0069441248
Zn  Zn5  1  0.72162000  0.27838000  0.77838000  1.0 0.9191043426
Zn  Zn6  1  0.57465000  0.42535000  0.92535000  1.0 1.0048761417
Zn  Zn7  1  0.77838000  0.72162000  0.27838000  1.0 0.9191043426
Zn  Zn8  1  0.92535000  0.57465000  0.42535000  1.0 1.0069441248
H  H1  1  0.56360000  0.71450000  0.49000000  1.0 0.1073892985
H  H2  1  0.93640000  0.28550000  0.99000000  1.0 0.1073892985
H  H3  1  0.43640000  0.21450000  0.01000000  1.0 0.1073892985
H  H4  1  0.06360000  0.78550000  0.51000000  1.0 0.1073892985
H  H5  1  0.49000000  0.56360000  0.71450000  1.0 0.1073892985
H  H6  1  0.99000000  0.93640000  0.28550000  1.0 0.1073892985
H  H7  1  0.01000000  0.43640000  0.21450000  1.0 0.1073892985
H  H8  1  0.51000000  0.06360000  0.78550000  1.0 0.1073892985
H  H9  1  0.71450000  0.49000000  0.56360000  1.0 0.1073892985
H  H10  1  0.28550000  0.99000000  0.93640000  1.0 0.1073892985
H  H11  1  0.21450000  0.01000000  0.43640000  1.0 0.1073892985
H  H12  1  0.78550000  0.51000000  0.06360000  1.0 0.1073892985
C  C1  1  0.43650000  0.71660000  0.62180000  1.0 0.5854114343
C  C2  1  0.51460000  0.64940000  0.60470000  1.0 -0.0671221838
C  C3  1  0.57400000  0.66450000  0.53000000  1.0 -0.0936956735
C  C4  1  0.06350000  0.28340000  0.12180000  1.0 0.5847097685
C  C5  1  0.98540000  0.35060000  0.10470000  1.0 -0.0671221838
C  C6  1  0.92600000  0.33550000  0.03000000  1.0 -0.0936956735
C  C7  1  0.56350000  0.21660000  0.87820000  1.0 0.5847097685
C  C8  1  0.48540000  0.14940000  0.89530000  1.0 -0.0671221838
C  C9  1  0.42600000  0.16450000  0.97000000  1.0 -0.0936956735
C  C10  1  0.93650000  0.78340000  0.37820000  1.0 0.5847097685
C  C11  1  0.01460000  0.85060000  0.39530000  1.0 -0.0671221838
C  C12  1  0.07400000  0.83550000  0.47000000  1.0 -0.0936956735
C  C13  1  0.62180000  0.43650000  0.71660000  1.0 0.5854114343
C  C14  1  0.60470000  0.51460000  0.64940000  1.0 -0.0671221838
C  C15  1  0.53000000  0.57400000  0.66450000  1.0 -0.0936956735
C  C16  1  0.12180000  0.06350000  0.28340000  1.0 0.5847097685
C  C17  1  0.10470000  0.98540000  0.35060000  1.0 -0.0671221838
C  C18  1  0.03000000  0.92600000  0.33550000  1.0 -0.0936956735
C  C19  1  0.87820000  0.56350000  0.21660000  1.0 0.5847097685
C  C20  1  0.89530000  0.48540000  0.14940000  1.0 -0.0671221838
C  C21  1  0.97000000  0.42600000  0.16450000  1.0 -0.0936956735
C  C22  1  0.37820000  0.93650000  0.78340000  1.0 0.5854114343
C  C23  1  0.39530000  0.01460000  0.85060000  1.0 -0.0671221838
C  C24  1  0.47000000  0.07400000  0.83550000  1.0 -0.0936956735
C  C25  1  0.71660000  0.62180000  0.43650000  1.0 0.5854114343
C  C26  1  0.64940000  0.60470000  0.51460000  1.0 -0.0671221838
C  C27  1  0.66450000  0.53000000  0.57400000  1.0 -0.0936956735
C  C28  1  0.28340000  0.12180000  0.06350000  1.0 0.5847097685
C  C29  1  0.35060000  0.10470000  0.98540000  1.0 -0.0671221838
C  C30  1  0.33550000  0.03000000  0.92600000  1.0 -0.0936956735
C  C31  1  0.21660000  0.87820000  0.56350000  1.0 0.5854114343
C  C32  1  0.14940000  0.89530000  0.48540000  1.0 -0.0671221838
C  C33  1  0.16450000  0.97000000  0.42600000  1.0 -0.0936956735
C  C34  1  0.78340000  0.37820000  0.93650000  1.0 0.5847097685
C  C35  1  0.85060000  0.39530000  0.01460000  1.0 -0.0671221838
C  C36  1  0.83550000  0.47000000  0.07400000  1.0 -0.0936956735
O  O1  1  0.42360000  0.78060000  0.56600000  1.0 -0.5814535419
O  O2  1  0.38410000  0.69840000  0.69400000  1.0 -0.5917915205
O  O3  1  0.07640000  0.21940000  0.06600000  1.0 -0.5814535419
O  O4  1  0.11590000  0.30160000  0.19400000  1.0 -0.5917915205
O  O5  1  0.57640000  0.28060000  0.93400000  1.0 -0.5814535419
O  O6  1  0.61590000  0.19840000  0.80600000  1.0 -0.5917915205
O  O7  1  0.92360000  0.71940000  0.43400000  1.0 -0.5814535419
O  O8  1  0.88410000  0.80160000  0.30600000  1.0 -0.5917915205
O  O9  1  0.56600000  0.42360000  0.78060000  1.0 -0.5814535419
O  O10  1  0.69400000  0.38410000  0.69840000  1.0 -0.5917915205
O  O11  1  0.06600000  0.07640000  0.21940000  1.0 -0.5814535419
O  O12  1  0.19400000  0.11590000  0.30160000  1.0 -0.5917915205
O  O13  1  0.93400000  0.57640000  0.28060000  1.0 -0.5814535419
O  O14  1  0.80600000  0.61590000  0.19840000  1.0 -0.5917915205
O  O15  1  0.43400000  0.92360000  0.71940000  1.0 -0.5814535419
O  O16  1  0.30600000  0.88410000  0.80160000  1.0 -0.5917915205
O  O17  1  0.78060000  0.56600000  0.42360000  1.0 -0.5814535419
O  O18  1  0.69840000  0.69400000  0.38410000  1.0 -0.5917915205
O  O19  1  0.21940000  0.06600000  0.07640000  1.0 -0.5814535419
O  O20  1  0.30160000  0.19400000  0.11590000  1.0 -0.5917915205
O  O21  1  0.28060000  0.93400000  0.57640000  1.0 -0.5814535419
O  O22  1  0.19840000  0.80600000  0.61590000  1.0 -0.5917915205
O  O23  1  0.71940000  0.43400000  0.92360000  1.0 -0.5814535419
O  O24  1  0.80160000  0.30600000  0.88410000  1.0 -0.5917915205
