# DDEC6 charges by PACMAN v1.1 (https://github.com/mtap-research/PACMAN-charge/)
data_c8qi00747k2_ASR_pacman
_symmetry_space_group_name_H-M   'P 1'
_cell_length_a   26.39890000
_cell_length_b   26.39890000
_cell_length_c   19.21740000
_cell_angle_alpha   90.00000000
_cell_angle_beta   90.00000000
_cell_angle_gamma   90.00000000
_symmetry_Int_Tables_number   1
_chemical_formula_structural   Zn4H36C66N2O13
_chemical_formula_sum   'Zn8 H72 C132 N4 O26'
_cell_volume   13392.64298066
_cell_formula_units_Z   2
loop_
 _symmetry_equiv_pos_site_id
 _symmetry_equiv_pos_as_xyz
  1  'x, y, z'
loop_
 _atom_site_type_symbol
 _atom_site_label
 _atom_site_symmetry_multiplicity
 _atom_site_fract_x
 _atom_site_fract_y
 _atom_site_fract_z
 _atom_site_occupancy
 _atom_site_charge
Zn  Zn1  1  0.52965000  0.47035000  0.41717000  0.5 0.4939211306
Zn  Zn2  1  0.47035000  0.52965000  0.41717000  0.5 0.4939211306
Zn  Zn3  1  0.97035000  0.97035000  0.91717000  0.5 0.4939211306
Zn  Zn4  1  0.02965000  0.02965000  0.91717000  0.5 0.4939211306
Zn  Zn5  1  0.02965000  0.02965000  0.08283000  0.5 0.4939211306
Zn  Zn6  1  0.97035000  0.97035000  0.08283000  0.5 0.4939211306
Zn  Zn7  1  0.47035000  0.52965000  0.58283000  0.5 0.4939211306
Zn  Zn8  1  0.52965000  0.47035000  0.58283000  0.5 0.4939211306
Zn  Zn9  1  0.57251000  0.51291000  0.50000000  0.5 0.4955436406
Zn  Zn10  1  0.42749000  0.48709000  0.50000000  0.5 0.4955436406
Zn  Zn11  1  0.01291000  0.92749000  0.00000000  0.5 0.4955436406
Zn  Zn12  1  0.98709000  0.07251000  0.00000000  0.5 0.4939211306
Zn  Zn13  1  0.07251000  0.98709000  0.00000000  0.5 0.4939211306
Zn  Zn14  1  0.92749000  0.01291000  0.00000000  0.5 0.4955436406
Zn  Zn15  1  0.51291000  0.57251000  0.50000000  0.5 0.4955436406
Zn  Zn16  1  0.48709000  0.42749000  0.50000000  0.5 0.4955436406
H  H1  1  0.64457000  0.64457000  0.07292000  1.0 0.1313867537
H  H2  1  0.76450000  0.76450000  0.14221000  1.0 0.1313867537
H  H3  1  0.71933000  0.71933000  0.22290000  1.0 0.1231536442
H  H4  1  0.35543000  0.35543000  0.07292000  1.0 0.1313867537
H  H5  1  0.23550000  0.23550000  0.14221000  1.0 0.1313867537
H  H6  1  0.28067000  0.28067000  0.22290000  1.0 0.1231536442
H  H7  1  0.14457000  0.85543000  0.57292000  1.0 0.1313867537
H  H8  1  0.26450000  0.73550000  0.64221000  1.0 0.1313867537
H  H9  1  0.21933000  0.78067000  0.72290000  1.0 0.1231536442
H  H10  1  0.85543000  0.14457000  0.57292000  1.0 0.1313867537
H  H11  1  0.73550000  0.26450000  0.64221000  1.0 0.1313867537
H  H12  1  0.78067000  0.21933000  0.72290000  1.0 0.1231536442
H  H13  1  0.14457000  0.85543000  0.42708000  1.0 0.1313867537
H  H14  1  0.26450000  0.73550000  0.35779000  1.0 0.1313867537
H  H15  1  0.21933000  0.78067000  0.27710000  1.0 0.1231536442
H  H16  1  0.85543000  0.14457000  0.42708000  1.0 0.1313867537
H  H17  1  0.73550000  0.26450000  0.35779000  1.0 0.1313867537
H  H18  1  0.78067000  0.21933000  0.27710000  1.0 0.1231536442
H  H19  1  0.64457000  0.64457000  0.92708000  1.0 0.1313867537
H  H20  1  0.76450000  0.76450000  0.85779000  1.0 0.1313867537
H  H21  1  0.71933000  0.71933000  0.77710000  1.0 0.1231536442
H  H22  1  0.35543000  0.35543000  0.92708000  1.0 0.1313867537
H  H23  1  0.23550000  0.23550000  0.85779000  1.0 0.1313867537
H  H24  1  0.28067000  0.28067000  0.77710000  1.0 0.1231536442
H  H25  1  0.60489000  0.53775000  0.24833000  0.5 0.1023312139
H  H26  1  0.64812000  0.58185000  0.16329000  0.5 0.0891044472
H  H27  1  0.70729000  0.63701000  0.27557000  0.5 0.0891044472
H  H28  1  0.66378000  0.59375000  0.36122000  0.5 0.1023312139
H  H29  1  0.84068000  0.75380000  0.94215000  0.5 0.1095013241
H  H30  1  0.90166000  0.81615000  0.94075000  0.5 0.1095013241
H  H31  1  0.39511000  0.46225000  0.24833000  0.5 0.1023312139
H  H32  1  0.35188000  0.41815000  0.16329000  0.5 0.0891044472
H  H33  1  0.29271000  0.36299000  0.27557000  0.5 0.0891044472
H  H34  1  0.33622000  0.40625000  0.36122000  0.5 0.1023312139
H  H35  1  0.15932000  0.24620000  0.94215000  0.5 0.1095013241
H  H36  1  0.09834000  0.18385000  0.94075000  0.5 0.1095013241
H  H37  1  0.03775000  0.89511000  0.74833000  0.5 0.1023312139
H  H38  1  0.08185000  0.85188000  0.66329000  0.5 0.0891044472
H  H39  1  0.13701000  0.79271000  0.77557000  0.5 0.0891044472
H  H40  1  0.09375000  0.83622000  0.86122000  0.5 0.1095013241
H  H41  1  0.25380000  0.65932000  0.44215000  0.5 0.1095013241
H  H42  1  0.31615000  0.59834000  0.44075000  0.5 0.1095013241
H  H43  1  0.96225000  0.10489000  0.74833000  0.5 0.1023312139
H  H44  1  0.91815000  0.14812000  0.66329000  0.5 0.0891044472
H  H45  1  0.86299000  0.20729000  0.77557000  0.5 0.0891044472
H  H46  1  0.90625000  0.16378000  0.86122000  0.5 0.1095013241
H  H47  1  0.74620000  0.34068000  0.44215000  0.5 0.1095013241
H  H48  1  0.68385000  0.40166000  0.44075000  0.5 0.1095013241
H  H49  1  0.10489000  0.96225000  0.25167000  0.5 0.1023312139
H  H50  1  0.14812000  0.91815000  0.33671000  0.5 0.0891044472
H  H51  1  0.20729000  0.86299000  0.22443000  0.5 0.0891044472
H  H52  1  0.16378000  0.90625000  0.13878000  0.5 0.1023312139
H  H53  1  0.34068000  0.74620000  0.55785000  0.5 0.1095013241
H  H54  1  0.40166000  0.68385000  0.55925000  0.5 0.1095013241
H  H55  1  0.89511000  0.03775000  0.25167000  0.5 0.1023312139
H  H56  1  0.85188000  0.08185000  0.33671000  0.5 0.0891044472
H  H57  1  0.79271000  0.13701000  0.22443000  0.5 0.0891044472
H  H58  1  0.83622000  0.09375000  0.13878000  0.5 0.1023312139
H  H59  1  0.65932000  0.25380000  0.55785000  0.5 0.1095013241
H  H60  1  0.59834000  0.31615000  0.55925000  0.5 0.1095013241
H  H61  1  0.53775000  0.60489000  0.75167000  0.5 0.1023312139
H  H62  1  0.58185000  0.64812000  0.83671000  0.5 0.0891044472
H  H63  1  0.63701000  0.70729000  0.72443000  0.5 0.0891044472
H  H64  1  0.59375000  0.66378000  0.63878000  0.5 0.1095013241
H  H65  1  0.75380000  0.84068000  0.05785000  0.5 0.1095013241
H  H66  1  0.81615000  0.90166000  0.05925000  0.5 0.1095013241
H  H67  1  0.46225000  0.39511000  0.75167000  0.5 0.1023312139
H  H68  1  0.41815000  0.35188000  0.83671000  0.5 0.0891044472
H  H69  1  0.36299000  0.29271000  0.72443000  0.5 0.0891044472
H  H70  1  0.40625000  0.33622000  0.63878000  0.5 0.1023312139
H  H71  1  0.24620000  0.15932000  0.05785000  0.5 0.1095013241
H  H72  1  0.18385000  0.09834000  0.05925000  0.5 0.1095013241
H  H73  1  0.39511000  0.46225000  0.75167000  0.5 0.1023312139
H  H74  1  0.35188000  0.41815000  0.83671000  0.5 0.0891044472
H  H75  1  0.29271000  0.36299000  0.72443000  0.5 0.0891044472
H  H76  1  0.33622000  0.40625000  0.63878000  0.5 0.1023312139
H  H77  1  0.15932000  0.24620000  0.05785000  0.5 0.1095013241
H  H78  1  0.09834000  0.18385000  0.05925000  0.5 0.1095013241
H  H79  1  0.60489000  0.53775000  0.75167000  0.5 0.1023312139
H  H80  1  0.64812000  0.58185000  0.83671000  0.5 0.0891044472
H  H81  1  0.70729000  0.63701000  0.72443000  0.5 0.0891044472
H  H82  1  0.66378000  0.59375000  0.63878000  0.5 0.1095013241
H  H83  1  0.84068000  0.75380000  0.05785000  0.5 0.1095013241
H  H84  1  0.90166000  0.81615000  0.05925000  0.5 0.1095013241
H  H85  1  0.96225000  0.10489000  0.25167000  0.5 0.1023312139
H  H86  1  0.91815000  0.14812000  0.33671000  0.5 0.0891044472
H  H87  1  0.86299000  0.20729000  0.22443000  0.5 0.0891044472
H  H88  1  0.90625000  0.16378000  0.13878000  0.5 0.1023312139
H  H89  1  0.74620000  0.34068000  0.55785000  0.5 0.1095013241
H  H90  1  0.68385000  0.40166000  0.55925000  0.5 0.1095013241
H  H91  1  0.03775000  0.89511000  0.25167000  0.5 0.1023312139
H  H92  1  0.08185000  0.85188000  0.33671000  0.5 0.0891044472
H  H93  1  0.13701000  0.79271000  0.22443000  0.5 0.0891044472
H  H94  1  0.09375000  0.83622000  0.13878000  0.5 0.1023312139
H  H95  1  0.25380000  0.65932000  0.55785000  0.5 0.1095013241
H  H96  1  0.31615000  0.59834000  0.55925000  0.5 0.1095013241
H  H97  1  0.89511000  0.03775000  0.74833000  0.5 0.1023312139
H  H98  1  0.85188000  0.08185000  0.66329000  0.5 0.0891044472
H  H99  1  0.79271000  0.13701000  0.77557000  0.5 0.0891044472
H  H100  1  0.83622000  0.09375000  0.86122000  0.5 0.1095013241
H  H101  1  0.65932000  0.25380000  0.44215000  0.5 0.1095013241
H  H102  1  0.59834000  0.31615000  0.44075000  0.5 0.1095013241
H  H103  1  0.10489000  0.96225000  0.74833000  0.5 0.1023312139
H  H104  1  0.14812000  0.91815000  0.66329000  0.5 0.0891044472
H  H105  1  0.20729000  0.86299000  0.77557000  0.5 0.0891044472
H  H106  1  0.16378000  0.90625000  0.86122000  0.5 0.1095013241
H  H107  1  0.34068000  0.74620000  0.44215000  0.5 0.1095013241
H  H108  1  0.40166000  0.68385000  0.44075000  0.5 0.1095013241
H  H109  1  0.46225000  0.39511000  0.24833000  0.5 0.1023312139
H  H110  1  0.41815000  0.35188000  0.16329000  0.5 0.0891044472
H  H111  1  0.36299000  0.29271000  0.27557000  0.5 0.0891044472
H  H112  1  0.40625000  0.33622000  0.36122000  0.5 0.1023312139
H  H113  1  0.24620000  0.15932000  0.94215000  0.5 0.1095013241
H  H114  1  0.18385000  0.09834000  0.94075000  0.5 0.1095013241
H  H115  1  0.53775000  0.60489000  0.24833000  0.5 0.1023312139
H  H116  1  0.58185000  0.64812000  0.16329000  0.5 0.0891044472
H  H117  1  0.63701000  0.70729000  0.27557000  0.5 0.0891044472
H  H118  1  0.59375000  0.66378000  0.36122000  0.5 0.1023312139
H  H119  1  0.75380000  0.84068000  0.94215000  0.5 0.1095013241
H  H120  1  0.81615000  0.90166000  0.94075000  0.5 0.1095013241
C  C1  1  0.56774000  0.56774000  0.36822000  1.0 0.3805935984
C  C2  1  0.59556000  0.59556000  0.31356000  1.0 -0.0227694641
C  C3  1  0.64883000  0.64883000  0.21093000  1.0 0.0230862932
C  C4  1  0.67685000  0.67685000  0.15717000  1.0 0.0460785297
C  C5  1  0.66842000  0.66842000  0.08686000  1.0 -0.2157457186
C  C6  1  0.69523000  0.69523000  0.03758000  1.0 -0.0347648258
C  C7  1  0.73130000  0.73130000  0.05849000  1.0 0.0818402381
C  C8  1  0.74064000  0.74064000  0.12830000  1.0 -0.1985729257
C  C9  1  0.71345000  0.71345000  0.17587000  1.0 -0.1559016364
C  C10  1  0.43226000  0.43226000  0.36822000  1.0 0.3805935984
C  C11  1  0.40444000  0.40444000  0.31356000  1.0 -0.0227694641
C  C12  1  0.35117000  0.35117000  0.21093000  1.0 0.0230862932
C  C13  1  0.32315000  0.32315000  0.15717000  1.0 0.04373541
C  C14  1  0.33158000  0.33158000  0.08686000  1.0 -0.2157457186
C  C15  1  0.30477000  0.30477000  0.03758000  1.0 -0.0347648258
C  C16  1  0.26870000  0.26870000  0.05849000  1.0 0.0818402381
C  C17  1  0.25936000  0.25936000  0.12830000  1.0 -0.1985729257
C  C18  1  0.28655000  0.28655000  0.17587000  1.0 -0.1559016364
C  C19  1  0.06774000  0.93226000  0.86822000  1.0 0.3805935984
C  C20  1  0.09556000  0.90444000  0.81356000  1.0 -0.0227694641
C  C21  1  0.14883000  0.85117000  0.71093000  1.0 0.0230862932
C  C22  1  0.17685000  0.82315000  0.65717000  1.0 0.04373541
C  C23  1  0.16842000  0.83158000  0.58686000  1.0 -0.2157457186
C  C24  1  0.19523000  0.80477000  0.53758000  1.0 -0.0347648258
C  C25  1  0.23130000  0.76870000  0.55849000  1.0 0.0818402381
C  C26  1  0.24064000  0.75936000  0.62830000  1.0 -0.1985729257
C  C27  1  0.21345000  0.78655000  0.67587000  1.0 -0.1559016364
C  C28  1  0.93226000  0.06774000  0.86822000  1.0 0.3805935984
C  C29  1  0.90444000  0.09556000  0.81356000  1.0 -0.0227694641
C  C30  1  0.85117000  0.14883000  0.71093000  1.0 0.0230862932
C  C31  1  0.82315000  0.17685000  0.65717000  1.0 0.0460785297
C  C32  1  0.83158000  0.16842000  0.58686000  1.0 -0.2157457186
C  C33  1  0.80477000  0.19523000  0.53758000  1.0 -0.0347648258
C  C34  1  0.76870000  0.23130000  0.55849000  1.0 0.0818402381
C  C35  1  0.75936000  0.24064000  0.62830000  1.0 -0.1985729257
C  C36  1  0.78655000  0.21345000  0.67587000  1.0 -0.1559016364
C  C37  1  0.06774000  0.93226000  0.13178000  1.0 0.3805935984
C  C38  1  0.09556000  0.90444000  0.18644000  1.0 -0.0227694641
C  C39  1  0.14883000  0.85117000  0.28907000  1.0 0.0230862932
C  C40  1  0.17685000  0.82315000  0.34283000  1.0 0.04373541
C  C41  1  0.16842000  0.83158000  0.41314000  1.0 -0.2157457186
C  C42  1  0.19523000  0.80477000  0.46242000  1.0 -0.0347648258
C  C43  1  0.23130000  0.76870000  0.44151000  1.0 0.0818402381
C  C44  1  0.24064000  0.75936000  0.37170000  1.0 -0.1985729257
C  C45  1  0.21345000  0.78655000  0.32413000  1.0 -0.1559016364
C  C46  1  0.93226000  0.06774000  0.13178000  1.0 0.3805935984
C  C47  1  0.90444000  0.09556000  0.18644000  1.0 -0.0227694641
C  C48  1  0.85117000  0.14883000  0.28907000  1.0 0.0230862932
C  C49  1  0.82315000  0.17685000  0.34283000  1.0 0.0460785297
C  C50  1  0.83158000  0.16842000  0.41314000  1.0 -0.2157457186
C  C51  1  0.80477000  0.19523000  0.46242000  1.0 -0.0347648258
C  C52  1  0.76870000  0.23130000  0.44151000  1.0 0.0818402381
C  C53  1  0.75936000  0.24064000  0.37170000  1.0 -0.1985729257
C  C54  1  0.78655000  0.21345000  0.32413000  1.0 -0.1559016364
C  C55  1  0.56774000  0.56774000  0.63178000  1.0 0.3805935984
C  C56  1  0.59556000  0.59556000  0.68644000  1.0 -0.0227694641
C  C57  1  0.64883000  0.64883000  0.78907000  1.0 0.0230862932
C  C58  1  0.67685000  0.67685000  0.84283000  1.0 0.04373541
C  C59  1  0.66842000  0.66842000  0.91314000  1.0 -0.2157457186
C  C60  1  0.69523000  0.69523000  0.96242000  1.0 -0.0347648258
C  C61  1  0.73130000  0.73130000  0.94151000  1.0 0.0818402381
C  C62  1  0.74064000  0.74064000  0.87170000  1.0 -0.1985729257
C  C63  1  0.71345000  0.71345000  0.82413000  1.0 -0.1559016364
C  C64  1  0.43226000  0.43226000  0.63178000  1.0 0.3805935984
C  C65  1  0.40444000  0.40444000  0.68644000  1.0 -0.0227694641
C  C66  1  0.35117000  0.35117000  0.78907000  1.0 0.0230862932
C  C67  1  0.32315000  0.32315000  0.84283000  1.0 0.04373541
C  C68  1  0.33158000  0.33158000  0.91314000  1.0 -0.2157457186
C  C69  1  0.30477000  0.30477000  0.96242000  1.0 -0.0347648258
C  C70  1  0.26870000  0.26870000  0.94151000  1.0 0.0818402381
C  C71  1  0.25936000  0.25936000  0.87170000  1.0 -0.1985729257
C  C72  1  0.28655000  0.28655000  0.82413000  1.0 -0.1559016364
C  C73  1  0.79123000  0.79123000  0.00000000  1.0 0.0891044472
C  C74  1  0.86530000  0.86530000  0.00000000  1.0 -0.0139563882
C  C75  1  0.90498000  0.90498000  0.00000000  1.0 0.3711344344
C  C76  1  0.20877000  0.20877000  0.00000000  1.0 0.0891044472
C  C77  1  0.13470000  0.13470000  0.00000000  1.0 -0.0139563882
C  C78  1  0.09502000  0.09502000  0.00000000  1.0 0.3711344344
C  C79  1  0.29123000  0.70877000  0.50000000  1.0 0.0891044472
C  C80  1  0.36530000  0.63470000  0.50000000  1.0 -0.0139563882
C  C81  1  0.40498000  0.59502000  0.50000000  1.0 0.3711344344
C  C82  1  0.70877000  0.29123000  0.50000000  1.0 0.0891044472
C  C83  1  0.63470000  0.36530000  0.50000000  1.0 -0.0139563882
C  C84  1  0.59502000  0.40498000  0.50000000  1.0 0.3711344344
C  C85  1  0.61156000  0.57203000  0.25460000  0.5 -0.0607478888
C  C86  1  0.63785000  0.59866000  0.20341000  0.5 -0.0930502997
C  C87  1  0.67278000  0.63116000  0.27011000  0.5 -0.079473406
C  C88  1  0.64686000  0.60493000  0.32165000  0.5 -0.079473406
C  C89  1  0.83504000  0.78404000  0.96570000  0.5 -0.1114500346
C  C90  1  0.87182000  0.82144000  0.96540000  0.5 -0.067781463
C  C91  1  0.38844000  0.42797000  0.25460000  0.5 -0.0607478888
C  C92  1  0.36215000  0.40134000  0.20341000  0.5 -0.0930502997
C  C93  1  0.32722000  0.36884000  0.27011000  0.5 -0.079473406
C  C94  1  0.35314000  0.39507000  0.32165000  0.5 -0.079473406
C  C95  1  0.16496000  0.21596000  0.96570000  0.5 -0.1114500346
C  C96  1  0.12818000  0.17856000  0.96540000  0.5 -0.067781463
C  C97  1  0.07203000  0.88844000  0.75460000  0.5 -0.0607478888
C  C98  1  0.09866000  0.86215000  0.70341000  0.5 -0.0930502997
C  C99  1  0.13116000  0.82722000  0.77011000  0.5 -0.079473406
C  C100  1  0.10493000  0.85314000  0.82165000  0.5 -0.079473406
C  C101  1  0.28404000  0.66496000  0.46570000  0.5 -0.1114500346
C  C102  1  0.32144000  0.62818000  0.46540000  0.5 -0.067781463
C  C103  1  0.92797000  0.11156000  0.75460000  0.5 -0.0607478888
C  C104  1  0.90134000  0.13785000  0.70341000  0.5 -0.0930502997
C  C105  1  0.86884000  0.17278000  0.77011000  0.5 -0.079473406
C  C106  1  0.89507000  0.14686000  0.82165000  0.5 -0.067781463
C  C107  1  0.71596000  0.33504000  0.46570000  0.5 -0.1114500346
C  C108  1  0.67856000  0.37182000  0.46540000  0.5 -0.067781463
C  C109  1  0.11156000  0.92797000  0.24540000  0.5 -0.0607478888
C  C110  1  0.13785000  0.90134000  0.29659000  0.5 -0.0930502997
C  C111  1  0.17278000  0.86884000  0.22989000  0.5 -0.079473406
C  C112  1  0.14686000  0.89507000  0.17835000  0.5 -0.079473406
C  C113  1  0.33504000  0.71596000  0.53430000  0.5 -0.1114500346
C  C114  1  0.37182000  0.67856000  0.53460000  0.5 -0.067781463
C  C115  1  0.88844000  0.07203000  0.24540000  0.5 -0.0607478888
C  C116  1  0.86215000  0.09866000  0.29659000  0.5 -0.0930502997
C  C117  1  0.82722000  0.13116000  0.22989000  0.5 -0.079473406
C  C118  1  0.85314000  0.10493000  0.17835000  0.5 -0.079473406
C  C119  1  0.66496000  0.28404000  0.53430000  0.5 -0.1114500346
C  C120  1  0.62818000  0.32144000  0.53460000  0.5 -0.067781463
C  C121  1  0.57203000  0.61156000  0.74540000  0.5 -0.0607478888
C  C122  1  0.59866000  0.63785000  0.79659000  0.5 -0.0930502997
C  C123  1  0.63116000  0.67278000  0.72989000  0.5 -0.079473406
C  C124  1  0.60493000  0.64686000  0.67835000  0.5 -0.079473406
C  C125  1  0.78404000  0.83504000  0.03430000  0.5 -0.1114500346
C  C126  1  0.82144000  0.87182000  0.03460000  0.5 -0.067781463
C  C127  1  0.42797000  0.38844000  0.74540000  0.5 -0.0607478888
C  C128  1  0.40134000  0.36215000  0.79659000  0.5 -0.0930502997
C  C129  1  0.36884000  0.32722000  0.72989000  0.5 -0.079473406
C  C130  1  0.39507000  0.35314000  0.67835000  0.5 -0.067781463
C  C131  1  0.21596000  0.16496000  0.03430000  0.5 -0.1114500346
C  C132  1  0.17856000  0.12818000  0.03460000  0.5 -0.067781463
C  C133  1  0.38844000  0.42797000  0.74540000  0.5 -0.0607478888
C  C134  1  0.36215000  0.40134000  0.79659000  0.5 -0.0930502997
C  C135  1  0.32722000  0.36884000  0.72989000  0.5 -0.079473406
C  C136  1  0.35314000  0.39507000  0.67835000  0.5 -0.079473406
C  C137  1  0.16496000  0.21596000  0.03430000  0.5 -0.1114500346
C  C138  1  0.12818000  0.17856000  0.03460000  0.5 -0.067781463
C  C139  1  0.61156000  0.57203000  0.74540000  0.5 -0.0607478888
C  C140  1  0.63785000  0.59866000  0.79659000  0.5 -0.0930502997
C  C141  1  0.67278000  0.63116000  0.72989000  0.5 -0.079473406
C  C142  1  0.64686000  0.60493000  0.67835000  0.5 -0.079473406
C  C143  1  0.83504000  0.78404000  0.03430000  0.5 -0.1114500346
C  C144  1  0.87182000  0.82144000  0.03460000  0.5 -0.067781463
C  C145  1  0.92797000  0.11156000  0.24540000  0.5 -0.0607478888
C  C146  1  0.90134000  0.13785000  0.29659000  0.5 -0.0930502997
C  C147  1  0.86884000  0.17278000  0.22989000  0.5 -0.079473406
C  C148  1  0.89507000  0.14686000  0.17835000  0.5 -0.079473406
C  C149  1  0.71596000  0.33504000  0.53430000  0.5 -0.1114500346
C  C150  1  0.67856000  0.37182000  0.53460000  0.5 -0.067781463
C  C151  1  0.07203000  0.88844000  0.24540000  0.5 -0.0607478888
C  C152  1  0.09866000  0.86215000  0.29659000  0.5 -0.0930502997
C  C153  1  0.13116000  0.82722000  0.22989000  0.5 -0.079473406
C  C154  1  0.10493000  0.85314000  0.17835000  0.5 -0.079473406
C  C155  1  0.28404000  0.66496000  0.53430000  0.5 -0.1114500346
C  C156  1  0.32144000  0.62818000  0.53460000  0.5 -0.067781463
C  C157  1  0.88844000  0.07203000  0.75460000  0.5 -0.0607478888
C  C158  1  0.86215000  0.09866000  0.70341000  0.5 -0.0930502997
C  C159  1  0.82722000  0.13116000  0.77011000  0.5 -0.079473406
C  C160  1  0.85314000  0.10493000  0.82165000  0.5 -0.067781463
C  C161  1  0.66496000  0.28404000  0.46570000  0.5 -0.1114500346
C  C162  1  0.62818000  0.32144000  0.46540000  0.5 -0.067781463
C  C163  1  0.11156000  0.92797000  0.75460000  0.5 -0.0607478888
C  C164  1  0.13785000  0.90134000  0.70341000  0.5 -0.0930502997
C  C165  1  0.17278000  0.86884000  0.77011000  0.5 -0.079473406
C  C166  1  0.14686000  0.89507000  0.82165000  0.5 -0.079473406
C  C167  1  0.33504000  0.71596000  0.46570000  0.5 -0.1114500346
C  C168  1  0.37182000  0.67856000  0.46540000  0.5 -0.067781463
C  C169  1  0.42797000  0.38844000  0.25460000  0.5 -0.0607478888
C  C170  1  0.40134000  0.36215000  0.20341000  0.5 -0.0930502997
C  C171  1  0.36884000  0.32722000  0.27011000  0.5 -0.079473406
C  C172  1  0.39507000  0.35314000  0.32165000  0.5 -0.079473406
C  C173  1  0.21596000  0.16496000  0.96570000  0.5 -0.1114500346
C  C174  1  0.17856000  0.12818000  0.96540000  0.5 -0.067781463
C  C175  1  0.57203000  0.61156000  0.25460000  0.5 -0.0607478888
C  C176  1  0.59866000  0.63785000  0.20341000  0.5 -0.0930502997
C  C177  1  0.63116000  0.67278000  0.27011000  0.5 -0.079473406
C  C178  1  0.60493000  0.64686000  0.32165000  0.5 -0.079473406
C  C179  1  0.78404000  0.83504000  0.96570000  0.5 -0.1114500346
C  C180  1  0.82144000  0.87182000  0.96540000  0.5 -0.067781463
N  N1  1  0.75300000  0.75300000  0.00000000  1.0 -0.1775238174
N  N2  1  0.24700000  0.24700000  0.00000000  1.0 -0.1775238174
N  N3  1  0.25300000  0.74700000  0.50000000  1.0 -0.1775238174
N  N4  1  0.74700000  0.25300000  0.50000000  1.0 -0.1775238174
O  O1  1  0.50000000  0.50000000  0.50000000  1.0 -0.6955158296
O  O2  1  0.00000000  0.00000000  0.00000000  1.0 -0.6955158296
O  O3  1  0.59254000  0.55117000  0.41888000  0.5 -0.2484151884
O  O4  1  0.56214000  0.52117000  0.35995000  0.5 -0.2484151884
O  O5  1  0.40746000  0.44883000  0.41888000  0.5 -0.2484151884
O  O6  1  0.43786000  0.47883000  0.35995000  0.5 -0.2484151884
O  O7  1  0.05117000  0.90746000  0.91888000  0.5 -0.2484151884
O  O8  1  0.02117000  0.93786000  0.85995000  0.5 -0.2484151884
O  O9  1  0.94883000  0.09254000  0.91888000  0.5 -0.2484151884
O  O10  1  0.97883000  0.06214000  0.85995000  0.5 -0.2484151884
O  O11  1  0.09254000  0.94883000  0.08112000  0.5 -0.2484151884
O  O12  1  0.06214000  0.97883000  0.14005000  0.5 -0.2484151884
O  O13  1  0.90746000  0.05117000  0.08112000  0.5 -0.2484151884
O  O14  1  0.93786000  0.02117000  0.14005000  0.5 -0.2484151884
O  O15  1  0.55117000  0.59254000  0.58112000  0.5 -0.2484151884
O  O16  1  0.52117000  0.56214000  0.64005000  0.5 -0.2484151884
O  O17  1  0.44883000  0.40746000  0.58112000  0.5 -0.2484151884
O  O18  1  0.47883000  0.43786000  0.64005000  0.5 -0.2484151884
O  O19  1  0.40746000  0.44883000  0.58112000  0.5 -0.2484151884
O  O20  1  0.43786000  0.47883000  0.64005000  0.5 -0.2484151884
O  O21  1  0.59254000  0.55117000  0.58112000  0.5 -0.2484151884
O  O22  1  0.56214000  0.52117000  0.64005000  0.5 -0.2484151884
O  O23  1  0.94883000  0.09254000  0.08112000  0.5 -0.2484151884
O  O24  1  0.97883000  0.06214000  0.14005000  0.5 -0.2484151884
O  O25  1  0.05117000  0.90746000  0.08112000  0.5 -0.2484151884
O  O26  1  0.02117000  0.93786000  0.14005000  0.5 -0.2484151884
O  O27  1  0.90746000  0.05117000  0.91888000  0.5 -0.2484151884
O  O28  1  0.93786000  0.02117000  0.85995000  0.5 -0.2484151884
O  O29  1  0.09254000  0.94883000  0.91888000  0.5 -0.2484151884
O  O30  1  0.06214000  0.97883000  0.85995000  0.5 -0.2484151884
O  O31  1  0.44883000  0.40746000  0.41888000  0.5 -0.2484151884
O  O32  1  0.47883000  0.43786000  0.35995000  0.5 -0.2484151884
O  O33  1  0.55117000  0.59254000  0.41888000  0.5 -0.2484151884
O  O34  1  0.52117000  0.56214000  0.35995000  0.5 -0.2484151884
O  O35  1  0.92058000  0.92058000  0.05659000  0.5 -0.2372058343
O  O36  1  0.07942000  0.07942000  0.05659000  0.5 -0.2372058343
O  O37  1  0.42058000  0.57942000  0.55659000  0.5 -0.2372058343
O  O38  1  0.57942000  0.42058000  0.55659000  0.5 -0.2372058343
O  O39  1  0.42058000  0.57942000  0.44341000  0.5 -0.2372058343
O  O40  1  0.57942000  0.42058000  0.44341000  0.5 -0.2372058343
O  O41  1  0.92058000  0.92058000  0.94341000  0.5 -0.2346094283
O  O42  1  0.07942000  0.07942000  0.94341000  0.5 -0.2346094283
O  O43  1  0.89036000  0.94955000  0.00000000  0.5 -0.2372058343
O  O44  1  0.10964000  0.05045000  0.00000000  0.5 -0.2372058343
O  O45  1  0.44955000  0.60964000  0.50000000  0.5 -0.2372058343
O  O46  1  0.55045000  0.39036000  0.50000000  0.5 -0.2372058343
O  O47  1  0.39036000  0.55045000  0.50000000  0.5 -0.2372058343
O  O48  1  0.60964000  0.44955000  0.50000000  0.5 -0.2372058343
O  O49  1  0.94955000  0.89036000  0.00000000  0.5 -0.2372058343
O  O50  1  0.05045000  0.10964000  0.00000000  0.5 -0.2372058343
