# DDEC6 charges by PACMAN v1.1 (https://github.com/mtap-research/PACMAN-charge/)
data_2019[Zn][sql]2[FSR]7
_chemical_formula_sum              "Zn4 H68 C84 S4 O25"
_cell_length_a       14.1506
_cell_length_b       14.1506
_cell_length_c       14.793
_cell_angle_alpha    90
_cell_angle_beta     90
_cell_angle_gamma    90

_symmetry_space_group_name_H-M    "P 1"
_symmetry_Int_Tables_number       1

loop_
  _symmetry_equiv_pos_as_xyz
  'x, y, z'

loop_
  _atom_site_type_symbol
  _atom_site_label
  _atom_site_symmetry_multiplicity
  _atom_site_fract_x
  _atom_site_fract_y
  _atom_site_fract_z
  _atom_site_occupancy
  _atom_site_charge
Zn  Zn1       1.0  0.13166  0.92826  0.50073  1.0000 0.9735609334
Zn  Zn2       1.0  0.86834  0.07174  0.50073  1.0000 0.9735609334
Zn  Zn3       1.0  0.07174  0.13166  0.50073  1.0000 0.9735609334
Zn  Zn4       1.0  0.92826  0.86834  0.50073  1.0000 0.9735609334
H   H1        1.0  0.22408  0.71975  0.70769  1.0000 0.1309800003
H   H2        1.0  0.09885  0.40530  0.85362  1.0000 0.1209615994
H   H3        1.0  0.35722  0.50359  0.90154  1.0000 0.1209615994
H   H4        1.0  0.33081  0.62855  0.80951  1.0000 0.1209615994
H   H5        1.0  0.24368  0.39611  0.92584  1.0000 0.1309800003
H   H6        1.0  0.23342  0.76540  0.19095  1.0000 0.1209615994
H   H7        1.0  0.96685  0.66755  0.19097  1.0000 0.1309800003
H   H8        1.0  0.93847  0.66395  0.60888  1.0000 0.3570508104
H   H9        1.0  0.18377  0.53802  0.17416  1.0000 0.146276791
H   H10       1.0  0.07476  0.52307  0.16181  1.0000 0.1309800003
H   H11       1.0  0.14423  0.49839  0.08271  1.0000 0.1309800003
H   H12       1.0  0.98472  0.62774  0.05917  1.0000 0.1309800003
H   H13       1.0  0.03556  0.70959  0.00686  1.0000 0.1382849556
H   H14       1.0  0.05438  0.60411  0.97992  1.0000 0.1309800003
H   H15       1.0  0.26476  0.66875  0.09124  1.0000 0.1209615994
H   H16       1.0  0.22586  0.62924  0.99949  1.0000 0.1209615994
H   H17       1.0  0.20704  0.73472  0.02643  1.0000 0.1309800003
H   H18       1.0  0.77592  0.28025  0.70769  1.0000 0.1309800003
H   H19       1.0  0.90115  0.59470  0.85362  1.0000 0.1209615994
H   H20       1.0  0.64278  0.49641  0.90154  1.0000 0.1209615994
H   H21       1.0  0.66919  0.37145  0.80951  1.0000 0.1209615994
H   H22       1.0  0.75632  0.60389  0.92584  1.0000 0.1309800003
H   H23       1.0  0.76658  0.23460  0.19095  1.0000 0.1209615994
H   H24       1.0  0.03315  0.33245  0.19097  1.0000 0.1309800003
H   H25       1.0  0.06153  0.33605  0.60888  1.0000 0.3570508104
H   H26       1.0  0.81623  0.46198  0.17416  1.0000 0.146276791
H   H27       1.0  0.92524  0.47693  0.16181  1.0000 0.1309800003
H   H28       1.0  0.85577  0.50161  0.08271  1.0000 0.1309800003
H   H29       1.0  0.01528  0.37226  0.05917  1.0000 0.1309800003
H   H30       1.0  0.96444  0.29041  0.00686  1.0000 0.1382849556
H   H31       1.0  0.94562  0.39589  0.97992  1.0000 0.1309800003
H   H32       1.0  0.73524  0.33125  0.09124  1.0000 0.1209615994
H   H33       1.0  0.77414  0.37076  0.99949  1.0000 0.1209615994
H   H34       1.0  0.79296  0.26528  0.02643  1.0000 0.1309800003
H   H35       1.0  0.28025  0.22408  0.70769  1.0000 0.1309800003
H   H36       1.0  0.59470  0.09885  0.85362  1.0000 0.1209615994
H   H37       1.0  0.49641  0.35722  0.90154  1.0000 0.1209615994
H   H38       1.0  0.37145  0.33081  0.80951  1.0000 0.1209615994
H   H39       1.0  0.60389  0.24368  0.92584  1.0000 0.1309800003
H   H40       1.0  0.23460  0.23342  0.19095  1.0000 0.1209615994
H   H41       1.0  0.33245  0.96685  0.19097  1.0000 0.1309800003
H   H42       1.0  0.33605  0.93847  0.60888  1.0000 0.3570508104
H   H43       1.0  0.46198  0.18377  0.17416  1.0000 0.146276791
H   H44       1.0  0.47693  0.07476  0.16181  1.0000 0.1309800003
H   H45       1.0  0.50161  0.14423  0.08271  1.0000 0.1309800003
H   H46       1.0  0.37226  0.98472  0.05917  1.0000 0.1309800003
H   H47       1.0  0.29041  0.03556  0.00686  1.0000 0.1382849556
H   H48       1.0  0.39589  0.05438  0.97992  1.0000 0.1309800003
H   H49       1.0  0.33125  0.26476  0.09124  1.0000 0.1209615994
H   H50       1.0  0.37076  0.22586  0.99949  1.0000 0.1209615994
H   H51       1.0  0.26528  0.20704  0.02643  1.0000 0.1309800003
H   H52       1.0  0.71975  0.77592  0.70769  1.0000 0.1309800003
H   H53       1.0  0.40530  0.90115  0.85362  1.0000 0.1209615994
H   H54       1.0  0.50359  0.64278  0.90154  1.0000 0.1209615994
H   H55       1.0  0.62855  0.66919  0.80951  1.0000 0.1209615994
H   H56       1.0  0.39611  0.75632  0.92584  1.0000 0.1309800003
H   H57       1.0  0.76540  0.76658  0.19095  1.0000 0.1209615994
H   H58       1.0  0.66755  0.03315  0.19097  1.0000 0.1309800003
H   H59       1.0  0.66395  0.06153  0.60888  1.0000 0.3570508104
H   H60       1.0  0.53802  0.81623  0.17416  1.0000 0.146276791
H   H61       1.0  0.52307  0.92524  0.16181  1.0000 0.1309800003
H   H62       1.0  0.49839  0.85577  0.08271  1.0000 0.1309800003
H   H63       1.0  0.62774  0.01528  0.05917  1.0000 0.1309800003
H   H64       1.0  0.70959  0.96444  0.00686  1.0000 0.1382849556
H   H65       1.0  0.60411  0.94562  0.97992  1.0000 0.1309800003
H   H66       1.0  0.66875  0.73524  0.09124  1.0000 0.1209615994
H   H67       1.0  0.62924  0.77414  0.99949  1.0000 0.1209615994
H   H68       1.0  0.73472  0.79296  0.02643  1.0000 0.1309800003
C   C1        1.0  0.19580  0.59600  0.77400  1.0000 0.0677705001
C   C2        1.0  0.07410  0.76920  0.61360  1.0000 0.6193847101
C   C3        1.0  0.03650  0.53770  0.74180  1.0000 -0.0661564279
C   C4        1.0  0.01860  0.61650  0.69160  1.0000 0.2219863426
C   C5        1.0  0.17720  0.67460  0.71670  1.0000 -0.1381807062
C   C6        1.0  0.14440  0.45150  0.84360  1.0000 -0.1126135547
C   C7        1.0  0.29900  0.51010  0.87300  1.0000 -0.1028196622
C   C8        1.0  0.28320  0.58420  0.81830  1.0000 -0.1502753753
C   C9        1.0  0.23200  0.44610  0.88660  1.0000 -0.1165816147
C   C10       1.0  0.09160  0.68520  0.67460  1.0000 -0.133150119
C   C11       1.0  0.12560  0.52770  0.78480  1.0000 0.0543107282
C   C12       1.0  0.06430  0.81430  0.33160  1.0000 0.3105881851
C   C13       1.0  0.15390  0.81690  0.29330  1.0000 -0.2001037501
C   C14       1.0  0.17350  0.76360  0.21660  1.0000 -0.1381807062
C   C15       1.0  0.10340  0.70770  0.17830  1.0000 0.0782493841
C   C16       1.0  0.01370  0.70500  0.21660  1.0000 -0.133150119
C   C17       1.0  0.99420  0.75830  0.29330  1.0000 -0.2001037501
C   C18       1.0  0.12290  0.64230  0.09550  1.0000 0.263737325
C   C19       1.0  0.13230  0.54090  0.13200  1.0000 -0.4593051631
C   C20       1.0  0.04210  0.64630  0.02940  1.0000 -0.4781759042
C   C21       1.0  0.21340  0.67140  0.04890  1.0000 -0.4658083576
C   C22       1.0  0.80420  0.40400  0.77400  1.0000 0.0677705001
C   C23       1.0  0.92590  0.23080  0.61360  1.0000 0.6193847101
C   C24       1.0  0.96350  0.46230  0.74180  1.0000 -0.0661564279
C   C25       1.0  0.98140  0.38350  0.69160  1.0000 0.2219863426
C   C26       1.0  0.82280  0.32540  0.71670  1.0000 -0.1381807062
C   C27       1.0  0.85560  0.54850  0.84360  1.0000 -0.1126135547
C   C28       1.0  0.70100  0.48990  0.87300  1.0000 -0.1028196622
C   C29       1.0  0.71680  0.41580  0.81830  1.0000 -0.1502753753
C   C30       1.0  0.76800  0.55390  0.88660  1.0000 -0.1165816147
C   C31       1.0  0.90840  0.31480  0.67460  1.0000 -0.133150119
C   C32       1.0  0.87440  0.47230  0.78480  1.0000 0.0543107282
C   C33       1.0  0.93570  0.18570  0.33160  1.0000 0.3105881851
C   C34       1.0  0.84610  0.18310  0.29330  1.0000 -0.2001037501
C   C35       1.0  0.82650  0.23640  0.21660  1.0000 -0.1381807062
C   C36       1.0  0.89660  0.29230  0.17830  1.0000 0.0782493841
C   C37       1.0  0.98630  0.29500  0.21660  1.0000 -0.133150119
C   C38       1.0  0.00580  0.24170  0.29330  1.0000 -0.2001037501
C   C39       1.0  0.87710  0.35770  0.09550  1.0000 0.263737325
C   C40       1.0  0.86770  0.45910  0.13200  1.0000 -0.4593051631
C   C41       1.0  0.95790  0.35370  0.02940  1.0000 -0.4781759042
C   C42       1.0  0.78660  0.32860  0.04890  1.0000 -0.4658083576
C   C43       1.0  0.40400  0.19580  0.77400  1.0000 0.0677705001
C   C44       1.0  0.23080  0.07410  0.61360  1.0000 0.6193847101
C   C45       1.0  0.46230  0.03650  0.74180  1.0000 -0.0661564279
C   C46       1.0  0.38350  0.01860  0.69160  1.0000 0.2219863426
C   C47       1.0  0.32540  0.17720  0.71670  1.0000 -0.1381807062
C   C48       1.0  0.54850  0.14440  0.84360  1.0000 -0.1126135547
C   C49       1.0  0.48990  0.29900  0.87300  1.0000 -0.1028196622
C   C50       1.0  0.41580  0.28320  0.81830  1.0000 -0.1502753753
C   C51       1.0  0.55390  0.23200  0.88660  1.0000 -0.1165816147
C   C52       1.0  0.31480  0.09160  0.67460  1.0000 -0.133150119
C   C53       1.0  0.47230  0.12560  0.78480  1.0000 0.0543107282
C   C54       1.0  0.18570  0.06430  0.33160  1.0000 0.3105881851
C   C55       1.0  0.18310  0.15390  0.29330  1.0000 -0.2001037501
C   C56       1.0  0.23640  0.17350  0.21660  1.0000 -0.1381807062
C   C57       1.0  0.29230  0.10340  0.17830  1.0000 0.0782493841
C   C58       1.0  0.29500  0.01370  0.21660  1.0000 -0.133150119
C   C59       1.0  0.24170  0.99420  0.29330  1.0000 -0.2001037501
C   C60       1.0  0.35770  0.12290  0.09550  1.0000 0.263737325
C   C61       1.0  0.45910  0.13230  0.13200  1.0000 -0.4593051631
C   C62       1.0  0.35370  0.04210  0.02940  1.0000 -0.4781759042
C   C63       1.0  0.32860  0.21340  0.04890  1.0000 -0.4658083576
C   C64       1.0  0.59600  0.80420  0.77400  1.0000 0.0677705001
C   C65       1.0  0.76920  0.92590  0.61360  1.0000 0.6193847101
C   C66       1.0  0.53770  0.96350  0.74180  1.0000 -0.0661564279
C   C67       1.0  0.61650  0.98140  0.69160  1.0000 0.2219863426
C   C68       1.0  0.67460  0.82280  0.71670  1.0000 -0.1381807062
C   C69       1.0  0.45150  0.85560  0.84360  1.0000 -0.1126135547
C   C70       1.0  0.51010  0.70100  0.87300  1.0000 -0.1028196622
C   C71       1.0  0.58420  0.71680  0.81830  1.0000 -0.1502753753
C   C72       1.0  0.44610  0.76800  0.88660  1.0000 -0.1165816147
C   C73       1.0  0.68520  0.90840  0.67460  1.0000 -0.133150119
C   C74       1.0  0.52770  0.87440  0.78480  1.0000 0.0543107282
C   C75       1.0  0.81430  0.93570  0.33160  1.0000 0.3105881851
C   C76       1.0  0.81690  0.84610  0.29330  1.0000 -0.2001037501
C   C77       1.0  0.76360  0.82650  0.21660  1.0000 -0.1381807062
C   C78       1.0  0.70770  0.89660  0.17830  1.0000 0.0782493841
C   C79       1.0  0.70500  0.98630  0.21660  1.0000 -0.133150119
C   C80       1.0  0.75830  0.00580  0.29330  1.0000 -0.2001037501
C   C81       1.0  0.64230  0.87710  0.09550  1.0000 0.263737325
C   C82       1.0  0.54090  0.86770  0.13200  1.0000 -0.4593051631
C   C83       1.0  0.64630  0.95790  0.02940  1.0000 -0.4781759042
C   C84       1.0  0.67140  0.78660  0.04890  1.0000 -0.4658083576
S   S1        1.0  0.25162  0.87955  0.33113  1.0000 1.030829404
S   S2        1.0  0.74838  0.12045  0.33113  1.0000 1.030829404
S   S3        1.0  0.12045  0.25162  0.33113  1.0000 1.030829404
S   S4        1.0  0.87955  0.74838  0.33113  1.0000 1.030829404
O   O1        1.0  0.14310  0.81820  0.58950  1.0000 -0.4933795888
O   O2        1.0  0.04710  0.85840  0.41100  1.0000 -0.5570576895
O   O3        1.0  0.25090  0.87780  0.42940  1.0000 -0.4966750998
O   O4        1.0  0.93390  0.62590  0.65050  1.0000 -0.4086543281
O   O5        1.0  0.99130  0.78120  0.58720  1.0000 -0.4966750998
O   O6        1.0  0.33440  0.84140  0.28790  1.0000 -0.4933795888
O   O7        1.0  0.85690  0.18180  0.58950  1.0000 -0.4933795888
O   O8        1.0  0.95290  0.14160  0.41100  1.0000 -0.5570576895
O   O9        1.0  0.74910  0.12220  0.42940  1.0000 -0.4966750998
O   O10       1.0  0.06610  0.37410  0.65050  1.0000 -0.4086543281
O   O11       1.0  0.00870  0.21880  0.58720  1.0000 -0.4966750998
O   O12       1.0  0.66560  0.15860  0.28790  1.0000 -0.4933795888
O   O13       1.0  0.18180  0.14310  0.58950  1.0000 -0.4933795888
O   O14       1.0  0.14160  0.04710  0.41100  1.0000 -0.5570576895
O   O15       1.0  0.12220  0.25090  0.42940  1.0000 -0.4966750998
O   O16       1.0  0.37410  0.93390  0.65050  1.0000 -0.4086543281
O   O17       1.0  0.21880  0.99130  0.58720  1.0000 -0.4966750998
O   O18       1.0  0.15860  0.33440  0.28790  1.0000 -0.4933795888
O   O19       1.0  0.81820  0.85690  0.58950  1.0000 -0.4933795888
O   O20       1.0  0.85840  0.95290  0.41100  1.0000 -0.5570576895
O   O21       1.0  0.87780  0.74910  0.42940  1.0000 -0.4966750998
O   O22       1.0  0.62590  0.06610  0.65050  1.0000 -0.4086543281
O   O23       1.0  0.78120  0.00870  0.58720  1.0000 -0.4966750998
O   O24       1.0  0.84140  0.66560  0.28790  1.0000 -0.4933795888
O   O25       1.0  0.00000  0.00000  0.54040  1.0000 -0.7808522541
