# DDEC6 charges by PACMAN v1.1 (https://github.com/mtap-research/PACMAN-charge/)
data_cr6b00346_si_001_ASR_pacman
_symmetry_space_group_name_H-M   'P 1'
_cell_length_a   18.54740000
_cell_length_b   18.54740000
_cell_length_c   18.54740000
_cell_angle_alpha   90.00000000
_cell_angle_beta   90.00000000
_cell_angle_gamma   90.00000000
_symmetry_Int_Tables_number   1
_chemical_formula_structural   Zn3C20(N4O)2
_chemical_formula_sum   'Zn18 C120 N48 O12'
_cell_volume   6380.41775168
_cell_formula_units_Z   6
loop_
 _symmetry_equiv_pos_site_id
 _symmetry_equiv_pos_as_xyz
  1  'x, y, z'
loop_
 _atom_site_type_symbol
 _atom_site_label
 _atom_site_symmetry_multiplicity
 _atom_site_fract_x
 _atom_site_fract_y
 _atom_site_fract_z
 _atom_site_occupancy
 _atom_site_charge
Zn  Zn1  1  0.50000000  0.00000000  0.42000000  1.0 0.8589993703
Zn  Zn2  1  0.42000000  0.50000000  0.00000000  1.0 0.8589993703
Zn  Zn3  1  0.00000000  0.42000000  0.50000000  1.0 0.8589993703
Zn  Zn4  1  0.50000000  0.00000000  0.58000000  1.0 0.8589993703
Zn  Zn5  1  0.00000000  0.58000000  0.50000000  1.0 0.8589993703
Zn  Zn6  1  0.58000000  0.50000000  0.00000000  1.0 0.8589993703
Zn  Zn7  1  0.50000000  0.00000000  0.92000000  1.0 0.8589993703
Zn  Zn8  1  0.00000000  0.92000000  0.50000000  1.0 0.8589993703
Zn  Zn9  1  0.92000000  0.50000000  0.00000000  1.0 0.8589993703
Zn  Zn10  1  0.50000000  0.00000000  0.08000000  1.0 0.8589993703
Zn  Zn11  1  0.08000000  0.50000000  0.00000000  1.0 0.8589993703
Zn  Zn12  1  0.00000000  0.08000000  0.50000000  1.0 0.8589993703
Zn  Zn13  1  0.00000000  0.25000000  0.50000000  1.0 0.5072298335
Zn  Zn14  1  0.50000000  0.00000000  0.25000000  1.0 0.5072298335
Zn  Zn15  1  0.25000000  0.50000000  0.00000000  1.0 0.5072298335
Zn  Zn16  1  0.00000000  0.75000000  0.50000000  1.0 0.5072298335
Zn  Zn17  1  0.50000000  0.00000000  0.75000000  1.0 0.5072298335
Zn  Zn18  1  0.75000000  0.50000000  0.00000000  1.0 0.5072298335
C  C1  1  0.32030000  0.34940000  0.24710000  1.0 0.0628653426
C  C2  1  0.24710000  0.32030000  0.34940000  1.0 0.0628653426
C  C3  1  0.34940000  0.24710000  0.32030000  1.0 0.0628653426
C  C4  1  0.32030000  0.65060000  0.75290000  1.0 0.0628653426
C  C5  1  0.24710000  0.67970000  0.65060000  1.0 0.0628653426
C  C6  1  0.34940000  0.75290000  0.67970000  1.0 0.0628653426
C  C7  1  0.67970000  0.34940000  0.75290000  1.0 0.0628653426
C  C8  1  0.75290000  0.32030000  0.65060000  1.0 0.0628653426
C  C9  1  0.65060000  0.24710000  0.67970000  1.0 0.0628653426
C  C10  1  0.67970000  0.65060000  0.24710000  1.0 0.0628653426
C  C11  1  0.75290000  0.67970000  0.34940000  1.0 0.0628653426
C  C12  1  0.65060000  0.75290000  0.32030000  1.0 0.0628653426
C  C13  1  0.84940000  0.82030000  0.74710000  1.0 0.0628653426
C  C14  1  0.82030000  0.74710000  0.84940000  1.0 0.0628653426
C  C15  1  0.74710000  0.84940000  0.82030000  1.0 0.0628653426
C  C16  1  0.15060000  0.82030000  0.25290000  1.0 0.0628653426
C  C17  1  0.17970000  0.74710000  0.15060000  1.0 0.0628653426
C  C18  1  0.25290000  0.84940000  0.17970000  1.0 0.0628653426
C  C19  1  0.84940000  0.17970000  0.25290000  1.0 0.0628653426
C  C20  1  0.82030000  0.25290000  0.15060000  1.0 0.0628653426
C  C21  1  0.74710000  0.15060000  0.17970000  1.0 0.0628653426
C  C22  1  0.15060000  0.17970000  0.74710000  1.0 0.0628653426
C  C23  1  0.17970000  0.25290000  0.84940000  1.0 0.0628653426
C  C24  1  0.25290000  0.15060000  0.82030000  1.0 0.0628653426
C  C25  1  0.29400000  0.26470000  0.36750000  1.0 -0.0553493079
C  C26  1  0.36750000  0.29400000  0.26470000  1.0 -0.0553493079
C  C27  1  0.26470000  0.36750000  0.29400000  1.0 -0.0553493079
C  C28  1  0.29400000  0.73530000  0.63250000  1.0 -0.0553493079
C  C29  1  0.36750000  0.70600000  0.73530000  1.0 -0.0553493079
C  C30  1  0.26470000  0.63250000  0.70600000  1.0 -0.0553493079
C  C31  1  0.70600000  0.26470000  0.63250000  1.0 -0.0553493079
C  C32  1  0.63250000  0.29400000  0.73530000  1.0 -0.0548063082
C  C33  1  0.73530000  0.36750000  0.70600000  1.0 -0.0548063082
C  C34  1  0.70600000  0.73530000  0.36750000  1.0 -0.0553493079
C  C35  1  0.63250000  0.70600000  0.26470000  1.0 -0.0553493079
C  C36  1  0.73530000  0.63250000  0.29400000  1.0 -0.0553493079
C  C37  1  0.76470000  0.79400000  0.86750000  1.0 -0.0553493079
C  C38  1  0.79400000  0.86750000  0.76470000  1.0 -0.0553493079
C  C39  1  0.86750000  0.76470000  0.79400000  1.0 -0.0553493079
C  C40  1  0.23530000  0.79400000  0.13250000  1.0 -0.0553493079
C  C41  1  0.20600000  0.86750000  0.23530000  1.0 -0.0553493079
C  C42  1  0.13250000  0.76470000  0.20600000  1.0 -0.0553493079
C  C43  1  0.76470000  0.20600000  0.13250000  1.0 -0.0553493079
C  C44  1  0.79400000  0.13250000  0.23530000  1.0 -0.0548063082
C  C45  1  0.86750000  0.23530000  0.20600000  1.0 -0.0553493079
C  C46  1  0.23530000  0.20600000  0.86750000  1.0 -0.0553493079
C  C47  1  0.20600000  0.13250000  0.76470000  1.0 -0.0553493079
C  C48  1  0.13250000  0.23530000  0.79400000  1.0 -0.0553493079
C  C49  1  0.39070000  0.18160000  0.33100000  1.0 -0.0802105935
C  C50  1  0.33100000  0.39070000  0.18160000  1.0 -0.0802105935
C  C51  1  0.18160000  0.33100000  0.39070000  1.0 -0.0802105935
C  C52  1  0.39070000  0.81840000  0.66900000  1.0 -0.0802105935
C  C53  1  0.33100000  0.60930000  0.81840000  1.0 -0.0802105935
C  C54  1  0.18160000  0.66900000  0.60930000  1.0 -0.0802105935
C  C55  1  0.60930000  0.18160000  0.66900000  1.0 -0.0802105935
C  C56  1  0.66900000  0.39070000  0.81840000  1.0 -0.0802105935
C  C57  1  0.81840000  0.33100000  0.60930000  1.0 -0.0802105935
C  C58  1  0.60930000  0.81840000  0.33100000  1.0 -0.0802105935
C  C59  1  0.66900000  0.60930000  0.18160000  1.0 -0.0802105935
C  C60  1  0.81840000  0.66900000  0.39070000  1.0 -0.0802105935
C  C61  1  0.68160000  0.89070000  0.83100000  1.0 -0.0802105935
C  C62  1  0.89070000  0.83100000  0.68160000  1.0 -0.0802105935
C  C63  1  0.83100000  0.68160000  0.89070000  1.0 -0.0802105935
C  C64  1  0.31840000  0.89070000  0.16900000  1.0 -0.0802105935
C  C65  1  0.10930000  0.83100000  0.31840000  1.0 -0.0802105935
C  C66  1  0.16900000  0.68160000  0.10930000  1.0 -0.0802105935
C  C67  1  0.68160000  0.10930000  0.16900000  1.0 -0.0802105935
C  C68  1  0.89070000  0.16900000  0.31840000  1.0 -0.0802105935
C  C69  1  0.83100000  0.31840000  0.10930000  1.0 -0.0802105935
C  C70  1  0.31840000  0.10930000  0.83100000  1.0 -0.0802105935
C  C71  1  0.10930000  0.16900000  0.68160000  1.0 -0.0802105935
C  C72  1  0.16900000  0.31840000  0.89070000  1.0 -0.0802105935
C  C73  1  0.40230000  0.14800000  0.39520000  1.0 0.1035833564
C  C74  1  0.39520000  0.40230000  0.14800000  1.0 0.1035833564
C  C75  1  0.14800000  0.39520000  0.40230000  1.0 0.1035833564
C  C76  1  0.40230000  0.85200000  0.60480000  1.0 0.1063740789
C  C77  1  0.39520000  0.59770000  0.85200000  1.0 0.1035833564
C  C78  1  0.14800000  0.60480000  0.59770000  1.0 0.1035833564
C  C79  1  0.59770000  0.14800000  0.60480000  1.0 0.1035833564
C  C80  1  0.60480000  0.40230000  0.85200000  1.0 0.1035833564
C  C81  1  0.85200000  0.39520000  0.59770000  1.0 0.1035833564
C  C82  1  0.59770000  0.85200000  0.39520000  1.0 0.1063740789
C  C83  1  0.60480000  0.59770000  0.14800000  1.0 0.1063740789
C  C84  1  0.85200000  0.60480000  0.40230000  1.0 0.1063740789
C  C85  1  0.64800000  0.90230000  0.89520000  1.0 0.1063740789
C  C86  1  0.90230000  0.89520000  0.64800000  1.0 0.1063740789
C  C87  1  0.89520000  0.64800000  0.90230000  1.0 0.1063740789
C  C88  1  0.35200000  0.90230000  0.10480000  1.0 0.1063740789
C  C89  1  0.09770000  0.89520000  0.35200000  1.0 0.1063740789
C  C90  1  0.10480000  0.64800000  0.09770000  1.0 0.1063740789
C  C91  1  0.64800000  0.09770000  0.10480000  1.0 0.1035833564
C  C92  1  0.90230000  0.10480000  0.35200000  1.0 0.1035833564
C  C93  1  0.89520000  0.35200000  0.09770000  1.0 0.1063740789
C  C94  1  0.35200000  0.09770000  0.89520000  1.0 0.1035833564
C  C95  1  0.09770000  0.10480000  0.64800000  1.0 0.1035833564
C  C96  1  0.10480000  0.35200000  0.90230000  1.0 0.1035833564
C  C97  1  0.35720000  0.07550000  0.77880000  1.0 -0.0004022717
C  C98  1  0.77880000  0.35720000  0.07550000  1.0 -0.0004022717
C  C99  1  0.07550000  0.77880000  0.35720000  1.0 -0.0004022717
C  C100  1  0.35720000  0.92450000  0.22120000  1.0 -0.0004022717
C  C101  1  0.77880000  0.64280000  0.92450000  1.0 -0.0004022717
C  C102  1  0.07550000  0.22120000  0.64280000  1.0 0.0002431624
C  C103  1  0.64280000  0.07550000  0.22120000  1.0 -0.0004022717
C  C104  1  0.22120000  0.35720000  0.92450000  1.0 -0.0004022717
C  C105  1  0.92450000  0.77880000  0.64280000  1.0 -0.0004022717
C  C106  1  0.64280000  0.92450000  0.77880000  1.0 0.0002431624
C  C107  1  0.22120000  0.64280000  0.07550000  1.0 -0.0004022717
C  C108  1  0.92450000  0.22120000  0.35720000  1.0 -0.0004022717
C  C109  1  0.57550000  0.85720000  0.27880000  1.0 -0.0004022717
C  C110  1  0.85720000  0.27880000  0.57550000  1.0 -0.0004022717
C  C111  1  0.27880000  0.57550000  0.85720000  1.0 0.0002431624
C  C112  1  0.42450000  0.85720000  0.72120000  1.0 0.0002431624
C  C113  1  0.14280000  0.27880000  0.42450000  1.0 -0.0004022717
C  C114  1  0.72120000  0.57550000  0.14280000  1.0 -0.0004022717
C  C115  1  0.57550000  0.14280000  0.72120000  1.0 0.0002431624
C  C116  1  0.85720000  0.72120000  0.42450000  1.0 -0.0004022717
C  C117  1  0.27880000  0.42450000  0.14280000  1.0 -0.0004022717
C  C118  1  0.42450000  0.14280000  0.27880000  1.0 -0.0004022717
C  C119  1  0.14280000  0.72120000  0.57550000  1.0 0.0002431624
C  C120  1  0.72120000  0.42450000  0.85720000  1.0 -0.0004022717
N  N1  1  0.38260000  0.44330000  0.08860000  1.0 -0.0700589596
N  N2  1  0.08860000  0.38260000  0.44330000  1.0 -0.0700589596
N  N3  1  0.44330000  0.08860000  0.38260000  1.0 -0.0700589596
N  N4  1  0.38260000  0.55670000  0.91140000  1.0 -0.0700589596
N  N5  1  0.08860000  0.61740000  0.55670000  1.0 -0.0700589596
N  N6  1  0.44330000  0.91140000  0.61740000  1.0 -0.0700589596
N  N7  1  0.61740000  0.44330000  0.91140000  1.0 -0.0700589596
N  N8  1  0.91140000  0.38260000  0.55670000  1.0 -0.0700589596
N  N9  1  0.55670000  0.08860000  0.61740000  1.0 -0.0700589596
N  N10  1  0.61740000  0.55670000  0.08860000  1.0 -0.0700589596
N  N11  1  0.91140000  0.61740000  0.44330000  1.0 -0.0700589596
N  N12  1  0.55670000  0.91140000  0.38260000  1.0 -0.0700589596
N  N13  1  0.94330000  0.88260000  0.58860000  1.0 -0.0700589596
N  N14  1  0.88260000  0.58860000  0.94330000  1.0 -0.0700589596
N  N15  1  0.58860000  0.94330000  0.88260000  1.0 -0.0700589596
N  N16  1  0.05670000  0.88260000  0.41140000  1.0 -0.0700589596
N  N17  1  0.11740000  0.58860000  0.05670000  1.0 -0.0700589596
N  N18  1  0.41140000  0.94330000  0.11740000  1.0 -0.0700589596
N  N19  1  0.94330000  0.11740000  0.41140000  1.0 -0.0700589596
N  N20  1  0.88260000  0.41140000  0.05670000  1.0 -0.0700589596
N  N21  1  0.58860000  0.05670000  0.11740000  1.0 -0.0700589596
N  N22  1  0.05670000  0.11740000  0.58860000  1.0 -0.0700589596
N  N23  1  0.11740000  0.41140000  0.94330000  1.0 -0.0700589596
N  N24  1  0.41140000  0.05670000  0.88260000  1.0 -0.0700589596
N  N25  1  0.04290000  0.18940000  0.58540000  1.0 -0.1273172936
N  N26  1  0.58540000  0.04290000  0.18940000  1.0 -0.1273172936
N  N27  1  0.18940000  0.58540000  0.04290000  1.0 -0.1273172936
N  N28  1  0.04290000  0.81060000  0.41460000  1.0 -0.1273172936
N  N29  1  0.58540000  0.95710000  0.81060000  1.0 -0.1273172936
N  N30  1  0.18940000  0.41460000  0.95710000  1.0 -0.1273172936
N  N31  1  0.95710000  0.18940000  0.41460000  1.0 -0.1273172936
N  N32  1  0.41460000  0.04290000  0.81060000  1.0 -0.1273172936
N  N33  1  0.81060000  0.58540000  0.95710000  1.0 -0.1273172936
N  N34  1  0.95710000  0.81060000  0.58540000  1.0 -0.1273172936
N  N35  1  0.41460000  0.95710000  0.18940000  1.0 -0.1273172936
N  N36  1  0.81060000  0.41460000  0.04290000  1.0 -0.1273172936
N  N37  1  0.68940000  0.54290000  0.08540000  1.0 -0.1273172936
N  N38  1  0.54290000  0.08540000  0.68940000  1.0 -0.1273172936
N  N39  1  0.08540000  0.68940000  0.54290000  1.0 -0.1273172936
N  N40  1  0.31060000  0.54290000  0.91460000  1.0 -0.1273172936
N  N41  1  0.45710000  0.08540000  0.31060000  1.0 -0.1273172936
N  N42  1  0.91460000  0.68940000  0.45710000  1.0 -0.1273172936
N  N43  1  0.68940000  0.45710000  0.91460000  1.0 -0.1273172936
N  N44  1  0.54290000  0.91460000  0.31060000  1.0 -0.1273172936
N  N45  1  0.08540000  0.31060000  0.45710000  1.0 -0.1273172936
N  N46  1  0.31060000  0.45710000  0.08540000  1.0 -0.1273172936
N  N47  1  0.45710000  0.91460000  0.68940000  1.0 -0.1273172936
N  N48  1  0.91460000  0.31060000  0.54290000  1.0 -0.1273172936
O  O1  1  0.57000000  0.00000000  0.50000000  1.0 -0.7818514618
O  O2  1  0.50000000  0.57000000  0.00000000  1.0 -0.7818514618
O  O3  1  0.00000000  0.50000000  0.57000000  1.0 -0.7818514618
O  O4  1  0.50000000  0.43000000  0.00000000  1.0 -0.7818514618
O  O5  1  0.00000000  0.50000000  0.43000000  1.0 -0.7818514618
O  O6  1  0.43000000  0.00000000  0.50000000  1.0 -0.7818514618
O  O7  1  0.50000000  0.07000000  0.00000000  1.0 -0.7818514618
O  O8  1  0.07000000  0.00000000  0.50000000  1.0 -0.7818514618
O  O9  1  0.00000000  0.50000000  0.07000000  1.0 -0.7818514618
O  O10  1  0.93000000  0.00000000  0.50000000  1.0 -0.7818514618
O  O11  1  0.00000000  0.50000000  0.93000000  1.0 -0.7818514618
O  O12  1  0.50000000  0.93000000  0.00000000  1.0 -0.7818514618
