# DDEC6 charges by PACMAN v1.1 (https://github.com/mtap-research/PACMAN-charge/)
data_ic6b00136_si_002_FSR_pacman
_symmetry_space_group_name_H-M   'P 1'
_cell_length_a   17.01920000
_cell_length_b   27.79600000
_cell_length_c   9.32380000
_cell_angle_alpha   90.00000000
_cell_angle_beta   90.00000000
_cell_angle_gamma   90.00000000
_symmetry_Int_Tables_number   1
_chemical_formula_structural   Zn8H56C132N13.6O24
_chemical_formula_sum   'Zn8 H56 C132 N13.6 O24'
_cell_volume   4410.76981702
_cell_formula_units_Z   1
loop_
 _symmetry_equiv_pos_site_id
 _symmetry_equiv_pos_as_xyz
  1  'x, y, z'
loop_
 _atom_site_type_symbol
 _atom_site_label
 _atom_site_symmetry_multiplicity
 _atom_site_fract_x
 _atom_site_fract_y
 _atom_site_fract_z
 _atom_site_occupancy
 _atom_site_charge
Zn  Zn1  1  0.00000000  0.20193000  0.57129000  1.0 0.8444320292
Zn  Zn2  1  0.50000000  0.70193000  0.57129000  1.0 0.8444320292
Zn  Zn3  1  0.00000000  0.20193000  0.92871000  1.0 0.8444320292
Zn  Zn4  1  0.50000000  0.70193000  0.92871000  1.0 0.8444320292
Zn  Zn5  1  0.00000000  0.79807000  0.07129000  1.0 0.8444320292
Zn  Zn6  1  0.50000000  0.29807000  0.07129000  1.0 0.8444320292
Zn  Zn7  1  0.00000000  0.79807000  0.42871000  1.0 0.8444320292
Zn  Zn8  1  0.50000000  0.29807000  0.42871000  1.0 0.8444320292
H  H41  1  0.50000000  0.93600000  0.53650000  1.0 0.1238289646
H  H42  1  0.50000000  0.85320000  0.53690000  1.0 0.1238289646
H  H43  1  0.00000000  0.43600000  0.53650000  1.0 0.1238289646
H  H44  1  0.00000000  0.35320000  0.53690000  1.0 0.1238289646
H  H45  1  0.50000000  0.93600000  0.96350000  1.0 0.1238289646
H  H46  1  0.50000000  0.85320000  0.96310000  1.0 0.1238289646
H  H47  1  0.00000000  0.43600000  0.96350000  1.0 0.1238289646
H  H48  1  0.00000000  0.35320000  0.96310000  1.0 0.1238289646
H  H89  1  0.50000000  0.06400000  0.03650000  1.0 0.1238289646
H  H90  1  0.50000000  0.14680000  0.03690000  1.0 0.1238289646
H  H91  1  0.00000000  0.56400000  0.03650000  1.0 0.1238289646
H  H92  1  0.00000000  0.64680000  0.03690000  1.0 0.1238289646
H  H93  1  0.50000000  0.06400000  0.46350000  1.0 0.1238289646
H  H94  1  0.50000000  0.14680000  0.46310000  1.0 0.1238289646
H  H95  1  0.00000000  0.56400000  0.46350000  1.0 0.1238289646
H  H96  1  0.00000000  0.64680000  0.46310000  1.0 0.1238289646
H  H1  1  0.31200000  0.06930000  0.55720000  0.5 0.1238289646
H  H2  1  0.19880000  0.11620000  0.54270000  0.5 0.1294867734
H  H3  1  0.25010000  0.17630000  0.58970000  0.5 0.1294867734
H  H4  1  0.09730000  0.27390000  0.38390000  0.5 0.1438924338
H  H5  1  0.36180000  0.13520000  0.57370000  0.5 0.1294867734
H  H6  1  0.81200000  0.56930000  0.55720000  0.5 0.1238289646
H  H7  1  0.69880000  0.61620000  0.54270000  0.5 0.1294867734
H  H8  1  0.75010000  0.67630000  0.58970000  0.5 0.1294867734
H  H9  1  0.59730000  0.77390000  0.38390000  0.5 0.1438924338
H  H10  1  0.86180000  0.63520000  0.57370000  0.5 0.1294867734
H  H11  1  0.68800000  0.06930000  0.94280000  0.5 0.1238289646
H  H12  1  0.80120000  0.11620000  0.95730000  0.5 0.1294867734
H  H13  1  0.74990000  0.17630000  0.91030000  0.5 0.1294867734
H  H14  1  0.90270000  0.27390000  0.11610000  0.5 0.1438924338
H  H15  1  0.63820000  0.13520000  0.92630000  0.5 0.1294867734
H  H16  1  0.18800000  0.56930000  0.94280000  0.5 0.1238289646
H  H17  1  0.30120000  0.61620000  0.95730000  0.5 0.1294867734
H  H18  1  0.24990000  0.67630000  0.91030000  0.5 0.1294867734
H  H19  1  0.40270000  0.77390000  0.11610000  0.5 0.1438924338
H  H20  1  0.13820000  0.63520000  0.92630000  0.5 0.1294867734
H  H21  1  0.31200000  0.06930000  0.94280000  0.5 0.1238289646
H  H22  1  0.19880000  0.11620000  0.95730000  0.5 0.1294867734
H  H23  1  0.25010000  0.17630000  0.91030000  0.5 0.1294867734
H  H24  1  0.09730000  0.27390000  0.11610000  0.5 0.1438924338
H  H25  1  0.36180000  0.13520000  0.92630000  0.5 0.1294867734
H  H26  1  0.81200000  0.56930000  0.94280000  0.5 0.1238289646
H  H27  1  0.69880000  0.61620000  0.95730000  0.5 0.1294867734
H  H28  1  0.75010000  0.67630000  0.91030000  0.5 0.1294867734
H  H29  1  0.59730000  0.77390000  0.11610000  0.5 0.1438924338
H  H30  1  0.86180000  0.63520000  0.92630000  0.5 0.1294867734
H  H31  1  0.68800000  0.06930000  0.55720000  0.5 0.1238289646
H  H32  1  0.80120000  0.11620000  0.54270000  0.5 0.1294867734
H  H33  1  0.74990000  0.17630000  0.58970000  0.5 0.1294867734
H  H34  1  0.90270000  0.27390000  0.38390000  0.5 0.1438924338
H  H35  1  0.63820000  0.13520000  0.57370000  0.5 0.1294867734
H  H36  1  0.18800000  0.56930000  0.55720000  0.5 0.1238289646
H  H37  1  0.30120000  0.61620000  0.54270000  0.5 0.1294867734
H  H38  1  0.24990000  0.67630000  0.58970000  0.5 0.1294867734
H  H39  1  0.40270000  0.77390000  0.38390000  0.5 0.1438924338
H  H40  1  0.13820000  0.63520000  0.57370000  0.5 0.1294867734
H  H49  1  0.68800000  0.93070000  0.05720000  0.5 0.1238289646
H  H50  1  0.80120000  0.88380000  0.04270000  0.5 0.1294867734
H  H51  1  0.74990000  0.82370000  0.08970000  0.5 0.1294867734
H  H52  1  0.90270000  0.72610000  0.88390000  0.5 0.1438924338
H  H53  1  0.63820000  0.86480000  0.07370000  0.5 0.1294867734
H  H54  1  0.18800000  0.43070000  0.05720000  0.5 0.1238289646
H  H55  1  0.30120000  0.38380000  0.04270000  0.5 0.1294867734
H  H56  1  0.24990000  0.32370000  0.08970000  0.5 0.1294867734
H  H57  1  0.40270000  0.22610000  0.88390000  0.5 0.1438924338
H  H58  1  0.13820000  0.36480000  0.07370000  0.5 0.1294867734
H  H59  1  0.31200000  0.93070000  0.44280000  0.5 0.1238289646
H  H60  1  0.19880000  0.88380000  0.45730000  0.5 0.1294867734
H  H61  1  0.25010000  0.82370000  0.41030000  0.5 0.1294867734
H  H62  1  0.09730000  0.72610000  0.61610000  0.5 0.1438924338
H  H63  1  0.36180000  0.86480000  0.42630000  0.5 0.1294867734
H  H64  1  0.81200000  0.43070000  0.44280000  0.5 0.1238289646
H  H65  1  0.69880000  0.38380000  0.45730000  0.5 0.1294867734
H  H66  1  0.75010000  0.32370000  0.41030000  0.5 0.1294867734
H  H67  1  0.59730000  0.22610000  0.61610000  0.5 0.1438924338
H  H68  1  0.86180000  0.36480000  0.42630000  0.5 0.1294867734
H  H69  1  0.68800000  0.93070000  0.44280000  0.5 0.1238289646
H  H70  1  0.80120000  0.88380000  0.45730000  0.5 0.1294867734
H  H71  1  0.74990000  0.82370000  0.41030000  0.5 0.1294867734
H  H72  1  0.90270000  0.72610000  0.61610000  0.5 0.1438924338
H  H73  1  0.63820000  0.86480000  0.42630000  0.5 0.1294867734
H  H74  1  0.18800000  0.43070000  0.44280000  0.5 0.1238289646
H  H75  1  0.30120000  0.38380000  0.45730000  0.5 0.1294867734
H  H76  1  0.24990000  0.32370000  0.41030000  0.5 0.1294867734
H  H77  1  0.40270000  0.22610000  0.61610000  0.5 0.1438924338
H  H78  1  0.13820000  0.36480000  0.42630000  0.5 0.1294867734
H  H79  1  0.31200000  0.93070000  0.05720000  0.5 0.1238289646
H  H80  1  0.19880000  0.88380000  0.04270000  0.5 0.1294867734
H  H81  1  0.25010000  0.82370000  0.08970000  0.5 0.1294867734
H  H82  1  0.09730000  0.72610000  0.88390000  0.5 0.1438924338
H  H83  1  0.36180000  0.86480000  0.07370000  0.5 0.1294867734
H  H84  1  0.81200000  0.43070000  0.05720000  0.5 0.1238289646
H  H85  1  0.69880000  0.38380000  0.04270000  0.5 0.1294867734
H  H86  1  0.75010000  0.32370000  0.08970000  0.5 0.1294867734
H  H87  1  0.59730000  0.22610000  0.88390000  0.5 0.1438924338
H  H88  1  0.86180000  0.36480000  0.07370000  0.5 0.1294867734
C  C5  1  0.32900000  0.12920000  0.65140000  1.0 -0.0614003194
C  C10  1  0.82900000  0.62920000  0.65140000  1.0 -0.0614003194
C  C15  1  0.67100000  0.12920000  0.84860000  1.0 -0.0614003194
C  C20  1  0.17100000  0.62920000  0.84860000  1.0 -0.0614003194
C  C25  1  0.32900000  0.12920000  0.84860000  1.0 -0.0614003194
C  C30  1  0.82900000  0.62920000  0.84860000  1.0 -0.0614003194
C  C35  1  0.67100000  0.12920000  0.65140000  1.0 -0.0614003194
C  C40  1  0.17100000  0.62920000  0.65140000  1.0 -0.0614003194
C  C41  1  0.00000000  0.19810000  0.25000000  1.0 0.3581272469
C  C42  1  0.50000000  0.69810000  0.25000000  1.0 0.3581272469
C  C43  1  0.50000000  0.09730000  0.75000000  1.0 0.161149295
C  C44  1  0.50000000  0.99750000  0.75000000  1.0 -0.0895565345
C  C45  1  0.50000000  0.94430000  0.75000000  1.0 0.0931681127
C  C46  1  0.50000000  0.79020000  0.75000000  1.0 0.5496996374
C  C47  1  0.50000000  0.84390000  0.75000000  1.0 -0.0056280007
C  C48  1  0.00000000  0.59730000  0.75000000  1.0 0.161149295
C  C49  1  0.00000000  0.49750000  0.75000000  1.0 -0.0895565345
C  C50  1  0.00000000  0.44430000  0.75000000  1.0 0.0931681127
C  C51  1  0.00000000  0.29020000  0.75000000  1.0 0.5496996374
C  C52  1  0.00000000  0.34390000  0.75000000  1.0 -0.0056280007
C  C53  1  0.50000000  0.91940000  0.62310000  1.0 -0.1293616301
C  C54  1  0.50000000  0.86970000  0.62380000  1.0 -0.0895565345
C  C55  1  0.00000000  0.41940000  0.62310000  1.0 -0.1293616301
C  C56  1  0.00000000  0.36970000  0.62380000  1.0 -0.0895565345
C  C57  1  0.50000000  0.91940000  0.87690000  1.0 -0.1293616301
C  C58  1  0.50000000  0.86970000  0.87620000  1.0 -0.0895565345
C  C59  1  0.00000000  0.41940000  0.87690000  1.0 -0.1293616301
C  C60  1  0.00000000  0.36970000  0.87620000  1.0 -0.0895565345
C  C61  1  0.42960000  0.07270000  0.75000000  1.0 -0.1629379361
C  C62  1  0.42840000  0.02270000  0.75000000  1.0 0.161149295
C  C63  1  0.35300000  0.09820000  0.75000000  1.0 0.0764248616
C  C64  1  0.20700000  0.14400000  0.75000000  1.0 -0.0295670109
C  C65  1  0.12920000  0.16790000  0.75000000  1.0 0.5496996374
C  C66  1  0.92960000  0.57270000  0.75000000  1.0 -0.1629379361
C  C67  1  0.92840000  0.52270000  0.75000000  1.0 0.161149295
C  C68  1  0.85300000  0.59820000  0.75000000  1.0 0.0764248616
C  C69  1  0.70700000  0.64400000  0.75000000  1.0 -0.0295670109
C  C70  1  0.62920000  0.66790000  0.75000000  1.0 0.5496996374
C  C71  1  0.57040000  0.07270000  0.75000000  1.0 -0.1629379361
C  C72  1  0.57160000  0.02270000  0.75000000  1.0 0.161149295
C  C73  1  0.64700000  0.09820000  0.75000000  1.0 0.0764248616
C  C74  1  0.79300000  0.14400000  0.75000000  1.0 -0.0295670109
C  C75  1  0.87080000  0.16790000  0.75000000  1.0 0.5496996374
C  C76  1  0.07040000  0.57270000  0.75000000  1.0 -0.1629379361
C  C77  1  0.07160000  0.52270000  0.75000000  1.0 0.161149295
C  C78  1  0.14700000  0.59820000  0.75000000  1.0 0.0764248616
C  C79  1  0.29300000  0.64400000  0.75000000  1.0 -0.0295670109
C  C80  1  0.37080000  0.66790000  0.75000000  1.0 0.5496996374
C  C89  1  0.67100000  0.87080000  0.15140000  1.0 -0.0614003194
C  C94  1  0.17100000  0.37080000  0.15140000  1.0 -0.0614003194
C  C99  1  0.32900000  0.87080000  0.34860000  1.0 -0.0614003194
C  C104  1  0.82900000  0.37080000  0.34860000  1.0 -0.0614003194
C  C109  1  0.67100000  0.87080000  0.34860000  1.0 -0.0614003194
C  C114  1  0.17100000  0.37080000  0.34860000  1.0 -0.0614003194
C  C119  1  0.32900000  0.87080000  0.15140000  1.0 -0.0614003194
C  C124  1  0.82900000  0.37080000  0.15140000  1.0 -0.0614003194
C  C125  1  0.00000000  0.80190000  0.75000000  1.0 0.3581272469
C  C126  1  0.50000000  0.30190000  0.75000000  1.0 0.3581272469
C  C127  1  0.50000000  0.90270000  0.25000000  1.0 0.161149295
C  C128  1  0.50000000  0.00250000  0.25000000  1.0 -0.0895565345
C  C129  1  0.50000000  0.05570000  0.25000000  1.0 0.0931681127
C  C130  1  0.50000000  0.20980000  0.25000000  1.0 0.5496996374
C  C131  1  0.50000000  0.15610000  0.25000000  1.0 -0.0035193779
C  C132  1  0.00000000  0.40270000  0.25000000  1.0 0.161149295
C  C133  1  0.00000000  0.50250000  0.25000000  1.0 -0.0895565345
C  C134  1  0.00000000  0.55570000  0.25000000  1.0 0.0931681127
C  C135  1  0.00000000  0.70980000  0.25000000  1.0 0.5496996374
C  C136  1  0.00000000  0.65610000  0.25000000  1.0 -0.0035193779
C  C137  1  0.50000000  0.08060000  0.12310000  1.0 -0.1293616301
C  C138  1  0.50000000  0.13030000  0.12380000  1.0 -0.0895565345
C  C139  1  0.00000000  0.58060000  0.12310000  1.0 -0.1293616301
C  C140  1  0.00000000  0.63030000  0.12380000  1.0 -0.0895565345
C  C141  1  0.50000000  0.08060000  0.37690000  1.0 -0.1293616301
C  C142  1  0.50000000  0.13030000  0.37620000  1.0 -0.0895565345
C  C143  1  0.00000000  0.58060000  0.37690000  1.0 -0.1293616301
C  C144  1  0.00000000  0.63030000  0.37620000  1.0 -0.0895565345
C  C145  1  0.57040000  0.92730000  0.25000000  1.0 -0.1629379361
C  C146  1  0.57160000  0.97730000  0.25000000  1.0 0.161149295
C  C147  1  0.64700000  0.90180000  0.25000000  1.0 0.0764248616
C  C148  1  0.79300000  0.85600000  0.25000000  1.0 -0.0295670109
C  C149  1  0.87080000  0.83210000  0.25000000  1.0 0.5496996374
C  C150  1  0.07040000  0.42730000  0.25000000  1.0 -0.1629379361
C  C151  1  0.07160000  0.47730000  0.25000000  1.0 0.161149295
C  C152  1  0.14700000  0.40180000  0.25000000  1.0 0.0764248616
C  C153  1  0.29300000  0.35600000  0.25000000  1.0 -0.0295670109
C  C154  1  0.37080000  0.33210000  0.25000000  1.0 0.5496996374
C  C155  1  0.42960000  0.92730000  0.25000000  1.0 -0.1629379361
C  C156  1  0.42840000  0.97730000  0.25000000  1.0 0.161149295
C  C157  1  0.35300000  0.90180000  0.25000000  1.0 0.0764248616
C  C158  1  0.20700000  0.85600000  0.25000000  1.0 -0.0295670109
C  C159  1  0.12920000  0.83210000  0.25000000  1.0 0.5496996374
C  C160  1  0.92960000  0.42730000  0.25000000  1.0 -0.1629379361
C  C161  1  0.92840000  0.47730000  0.25000000  1.0 0.161149295
C  C162  1  0.85300000  0.40180000  0.25000000  1.0 0.0764248616
C  C163  1  0.70700000  0.35600000  0.25000000  1.0 -0.0295670109
C  C164  1  0.62920000  0.33210000  0.25000000  1.0 0.5496996374
C  C1  1  0.29940000  0.09100000  0.62970000  0.5 -0.0895565345
C  C2  1  0.23000000  0.11660000  0.62450000  0.5 -0.0496724692
C  C3  1  0.25980000  0.15250000  0.65750000  0.5 -0.0614003194
C  C4  1  0.06740000  0.25470000  0.32320000  0.5 -0.1193025945
C  C6  1  0.79940000  0.59100000  0.62970000  0.5 -0.0895565345
C  C7  1  0.73000000  0.61660000  0.62450000  0.5 -0.0496724692
C  C8  1  0.75980000  0.65250000  0.65750000  0.5 -0.0614003194
C  C9  1  0.56740000  0.75470000  0.32320000  0.5 -0.1193025945
C  C11  1  0.70060000  0.09100000  0.87030000  0.5 -0.0895565345
C  C12  1  0.77000000  0.11660000  0.87550000  0.5 -0.0496724692
C  C13  1  0.74020000  0.15250000  0.84250000  0.5 -0.0614003194
C  C14  1  0.93260000  0.25470000  0.17680000  0.5 -0.1193025945
C  C16  1  0.20060000  0.59100000  0.87030000  0.5 -0.0895565345
C  C17  1  0.27000000  0.61660000  0.87550000  0.5 -0.0496724692
C  C18  1  0.24020000  0.65250000  0.84250000  0.5 -0.0614003194
C  C19  1  0.43260000  0.75470000  0.17680000  0.5 -0.1193025945
C  C21  1  0.29940000  0.09100000  0.87030000  0.5 -0.0895565345
C  C22  1  0.23000000  0.11660000  0.87550000  0.5 -0.0496724692
C  C23  1  0.25980000  0.15250000  0.84250000  0.5 -0.0614003194
C  C24  1  0.06740000  0.25470000  0.17680000  0.5 -0.1193025945
C  C26  1  0.79940000  0.59100000  0.87030000  0.5 -0.0895565345
C  C27  1  0.73000000  0.61660000  0.87550000  0.5 -0.0496724692
C  C28  1  0.75980000  0.65250000  0.84250000  0.5 -0.0614003194
C  C29  1  0.56740000  0.75470000  0.17680000  0.5 -0.1193025945
C  C31  1  0.70060000  0.09100000  0.62970000  0.5 -0.0895565345
C  C32  1  0.77000000  0.11660000  0.62450000  0.5 -0.0496724692
C  C33  1  0.74020000  0.15250000  0.65750000  0.5 -0.0614003194
C  C34  1  0.93260000  0.25470000  0.32320000  0.5 -0.1193025945
C  C36  1  0.20060000  0.59100000  0.62970000  0.5 -0.0895565345
C  C37  1  0.27000000  0.61660000  0.62450000  0.5 -0.0496724692
C  C38  1  0.24020000  0.65250000  0.65750000  0.5 -0.0614003194
C  C39  1  0.43260000  0.75470000  0.32320000  0.5 -0.1193025945
C  C81  1  0.05610000  0.14770000  0.25000000  0.5 -0.2829352065
C  C82  1  0.55610000  0.64770000  0.25000000  0.5 -0.2829352065
C  C83  1  0.94390000  0.14770000  0.25000000  0.5 -0.2829352065
C  C84  1  0.44390000  0.64770000  0.25000000  0.5 -0.2829352065
C  C85  1  0.70060000  0.90900000  0.12970000  0.5 -0.0895565345
C  C86  1  0.77000000  0.88340000  0.12450000  0.5 -0.0496724692
C  C87  1  0.74020000  0.84750000  0.15750000  0.5 -0.0614003194
C  C88  1  0.93260000  0.74530000  0.82320000  0.5 -0.1193025945
C  C90  1  0.20060000  0.40900000  0.12970000  0.5 -0.0895565345
C  C91  1  0.27000000  0.38340000  0.12450000  0.5 -0.0496724692
C  C92  1  0.24020000  0.34750000  0.15750000  0.5 -0.0614003194
C  C93  1  0.43260000  0.24530000  0.82320000  0.5 -0.1193025945
C  C95  1  0.29940000  0.90900000  0.37030000  0.5 -0.0895565345
C  C96  1  0.23000000  0.88340000  0.37550000  0.5 -0.0496724692
C  C97  1  0.25980000  0.84750000  0.34250000  0.5 -0.0614003194
C  C98  1  0.06740000  0.74530000  0.67680000  0.5 -0.1193025945
C  C100  1  0.79940000  0.40900000  0.37030000  0.5 -0.0895565345
C  C101  1  0.73000000  0.38340000  0.37550000  0.5 -0.0496724692
C  C102  1  0.75980000  0.34750000  0.34250000  0.5 -0.0614003194
C  C103  1  0.56740000  0.24530000  0.67680000  0.5 -0.1193025945
C  C105  1  0.70060000  0.90900000  0.37030000  0.5 -0.0895565345
C  C106  1  0.77000000  0.88340000  0.37550000  0.5 -0.0496724692
C  C107  1  0.74020000  0.84750000  0.34250000  0.5 -0.0614003194
C  C108  1  0.93260000  0.74530000  0.67680000  0.5 -0.1193025945
C  C110  1  0.20060000  0.40900000  0.37030000  0.5 -0.0895565345
C  C111  1  0.27000000  0.38340000  0.37550000  0.5 -0.0496724692
C  C112  1  0.24020000  0.34750000  0.34250000  0.5 -0.0614003194
C  C113  1  0.43260000  0.24530000  0.67680000  0.5 -0.1193025945
C  C115  1  0.29940000  0.90900000  0.12970000  0.5 -0.0895565345
C  C116  1  0.23000000  0.88340000  0.12450000  0.5 -0.0496724692
C  C117  1  0.25980000  0.84750000  0.15750000  0.5 -0.0614003194
C  C118  1  0.06740000  0.74530000  0.82320000  0.5 -0.1193025945
C  C120  1  0.79940000  0.40900000  0.12970000  0.5 -0.0895565345
C  C121  1  0.73000000  0.38340000  0.12450000  0.5 -0.0496724692
C  C122  1  0.75980000  0.34750000  0.15750000  0.5 -0.0614003194
C  C123  1  0.56740000  0.24530000  0.82320000  0.5 -0.1193025945
C  C165  1  0.94390000  0.85230000  0.75000000  0.5 -0.2716756954
C  C166  1  0.44390000  0.35230000  0.75000000  0.5 -0.2716756954
C  C167  1  0.05610000  0.85230000  0.75000000  0.5 -0.2716756954
C  C168  1  0.55610000  0.35230000  0.75000000  0.5 -0.2716756954
N  N1  1  0.00000000  0.21150000  0.37110000  1.0 -0.1193025945
N  N2  1  0.50000000  0.71150000  0.37110000  1.0 -0.1193025945
N  N3  1  0.00000000  0.21150000  0.12890000  1.0 -0.1193025945
N  N4  1  0.50000000  0.71150000  0.12890000  1.0 -0.1193025945
N  N11  1  0.00000000  0.78850000  0.87110000  1.0 -0.1193025945
N  N12  1  0.50000000  0.28850000  0.87110000  1.0 -0.1193025945
N  N13  1  0.00000000  0.78850000  0.62890000  1.0 -0.1193025945
N  N14  1  0.50000000  0.28850000  0.62890000  1.0 -0.1193025945
N  N5  1  0.50000000  0.14150000  0.75000000  0.28 -0.3659470349
N  N6  1  0.00000000  0.64150000  0.75000000  0.28 -0.3659470349
N  N15  1  0.50000000  0.85850000  0.25000000  0.28 -0.3659470349
N  N16  1  0.00000000  0.35850000  0.25000000  0.28 -0.3659470349
N  N7  1  0.35690000  0.99590000  0.75000000  0.56 -0.2438087284
N  N8  1  0.85690000  0.49590000  0.75000000  0.56 -0.2438087284
N  N9  1  0.64310000  0.99590000  0.75000000  0.56 -0.2438087284
N  N10  1  0.14310000  0.49590000  0.75000000  0.56 -0.2438087284
N  N17  1  0.64310000  0.00410000  0.25000000  0.56 -0.2438087284
N  N18  1  0.14310000  0.50410000  0.25000000  0.56 -0.2438087284
N  N19  1  0.35690000  0.00410000  0.25000000  0.56 -0.2438087284
N  N20  1  0.85690000  0.50410000  0.25000000  0.56 -0.2438087284
O  O2  1  0.09670000  0.17550000  0.63180000  1.0 -0.4999991997
O  O4  1  0.59670000  0.67550000  0.63180000  1.0 -0.4999991997
O  O6  1  0.90330000  0.17550000  0.86820000  1.0 -0.4999991997
O  O8  1  0.40330000  0.67550000  0.86820000  1.0 -0.4999991997
O  O10  1  0.09670000  0.17550000  0.86820000  1.0 -0.4999991997
O  O12  1  0.59670000  0.67550000  0.86820000  1.0 -0.4999991997
O  O14  1  0.90330000  0.17550000  0.63180000  1.0 -0.4999991997
O  O16  1  0.40330000  0.67550000  0.63180000  1.0 -0.4999991997
O  O18  1  0.90330000  0.82450000  0.13180000  1.0 -0.4999991997
O  O20  1  0.40330000  0.32450000  0.13180000  1.0 -0.4999991997
O  O22  1  0.09670000  0.82450000  0.36820000  1.0 -0.4999991997
O  O24  1  0.59670000  0.32450000  0.36820000  1.0 -0.4999991997
O  O26  1  0.90330000  0.82450000  0.36820000  1.0 -0.4999991997
O  O28  1  0.40330000  0.32450000  0.36820000  1.0 -0.4999991997
O  O30  1  0.09670000  0.82450000  0.13180000  1.0 -0.4999991997
O  O32  1  0.59670000  0.32450000  0.13180000  1.0 -0.4999991997
O  O1  1  0.48820000  0.76986000  0.63400000  0.5 -0.364128974
O  O3  1  0.98820000  0.26986000  0.63400000  0.5 -0.364128974
O  O5  1  0.51180000  0.76986000  0.86600000  0.5 -0.364128974
O  O7  1  0.01180000  0.26986000  0.86600000  0.5 -0.364128974
O  O9  1  0.48820000  0.76986000  0.86600000  0.5 -0.364128974
O  O11  1  0.98820000  0.26986000  0.86600000  0.5 -0.364128974
O  O13  1  0.51180000  0.76986000  0.63400000  0.5 -0.364128974
O  O15  1  0.01180000  0.26986000  0.63400000  0.5 -0.364128974
O  O17  1  0.51180000  0.23014000  0.13400000  0.5 -0.364128974
O  O19  1  0.01180000  0.73014000  0.13400000  0.5 -0.364128974
O  O21  1  0.48820000  0.23014000  0.36600000  0.5 -0.364128974
O  O23  1  0.98820000  0.73014000  0.36600000  0.5 -0.364128974
O  O25  1  0.51180000  0.23014000  0.36600000  0.5 -0.364128974
O  O27  1  0.01180000  0.73014000  0.36600000  0.5 -0.364128974
O  O29  1  0.48820000  0.23014000  0.13400000  0.5 -0.364128974
O  O31  1  0.98820000  0.73014000  0.13400000  0.5 -0.364128974
