# DDEC6 charges by PACMAN v1.1 (https://github.com/mtap-research/PACMAN-charge/)
data_ja101440z_si_001_ASR_pacman
_symmetry_space_group_name_H-M   'P 1'
_cell_length_a   13.16700000
_cell_length_b   17.55800000
_cell_length_c   13.56400000
_cell_angle_alpha   90.00000000
_cell_angle_beta   90.00000000
_cell_angle_gamma   90.00000000
_symmetry_Int_Tables_number   1
_chemical_formula_structural   CaZn2H6(C3O2)6
_chemical_formula_sum   'Ca4 Zn8 H24 C72 O48'
_cell_volume   3135.80942690
_cell_formula_units_Z   4
loop_
 _symmetry_equiv_pos_site_id
 _symmetry_equiv_pos_as_xyz
  1  'x, y, z'
loop_
 _atom_site_type_symbol
 _atom_site_label
 _atom_site_symmetry_multiplicity
 _atom_site_fract_x
 _atom_site_fract_y
 _atom_site_fract_z
 _atom_site_occupancy
 _atom_site_charge
Ca  Ca1  1  0.00000000  0.67476000  0.75000000  1.0 1.3936176666
Ca  Ca2  1  0.50000000  0.17476000  0.75000000  1.0 1.3936176666
Ca  Ca3  1  0.00000000  0.32524000  0.25000000  1.0 1.3951865204
Ca  Ca4  1  0.50000000  0.82524000  0.25000000  1.0 1.3951865204
Zn  Zn1  1  0.80260000  0.60470000  0.92918000  1.0 0.8285900571
Zn  Zn2  1  0.30260000  0.10470000  0.92918000  1.0 0.8285900571
Zn  Zn3  1  0.19740000  0.39530000  0.42918000  1.0 0.8285900571
Zn  Zn4  1  0.69740000  0.89530000  0.42918000  1.0 0.8285900571
Zn  Zn5  1  0.19740000  0.60470000  0.57082000  1.0 0.8285900571
Zn  Zn6  1  0.69740000  0.10470000  0.57082000  1.0 0.8285900571
Zn  Zn7  1  0.80260000  0.39530000  0.07082000  1.0 0.8285900571
Zn  Zn8  1  0.30260000  0.89530000  0.07082000  1.0 0.8285900571
H  H1  1  0.65240000  0.78560000  0.96550000  1.0 0.1201044798
H  H2  1  0.54120000  0.98560000  0.87060000  1.0 0.1201044798
H  H3  1  0.78840000  0.89430000  0.74020000  1.0 0.1270913996
H  H4  1  0.15240000  0.28560000  0.96550000  1.0 0.1201044798
H  H5  1  0.04120000  0.48560000  0.87060000  1.0 0.1201044798
H  H6  1  0.28840000  0.39430000  0.74020000  1.0 0.1270913996
H  H7  1  0.34760000  0.21440000  0.46550000  1.0 0.1201044798
H  H8  1  0.45880000  0.01440000  0.37060000  1.0 0.1201044798
H  H9  1  0.21160000  0.10570000  0.24020000  1.0 0.1270913996
H  H10  1  0.84760000  0.71440000  0.46550000  1.0 0.1201044798
H  H11  1  0.95880000  0.51440000  0.37060000  1.0 0.1201044798
H  H12  1  0.71160000  0.60570000  0.24020000  1.0 0.1270913996
H  H13  1  0.34760000  0.78560000  0.53450000  1.0 0.1201044798
H  H14  1  0.45880000  0.98560000  0.62940000  1.0 0.1201044798
H  H15  1  0.21160000  0.89430000  0.75980000  1.0 0.1270913996
H  H16  1  0.84760000  0.28560000  0.53450000  1.0 0.1201044798
H  H17  1  0.95880000  0.48560000  0.62940000  1.0 0.1201044798
H  H18  1  0.71160000  0.39430000  0.75980000  1.0 0.1270913996
H  H19  1  0.65240000  0.21440000  0.03450000  1.0 0.1201044798
H  H20  1  0.54120000  0.01440000  0.12940000  1.0 0.1201044798
H  H21  1  0.78840000  0.10570000  0.25980000  1.0 0.1270913996
H  H22  1  0.15240000  0.71440000  0.03450000  1.0 0.1201044798
H  H23  1  0.04120000  0.51440000  0.12940000  1.0 0.1201044798
H  H24  1  0.28840000  0.60570000  0.25980000  1.0 0.1270913996
C  C1  1  0.72980000  0.82890000  0.85020000  1.0 -0.0358749921
C  C2  1  0.65510000  0.82660000  0.92200000  1.0 -0.1431626871
C  C3  1  0.58450000  0.88456000  0.92950000  1.0 -0.0230096095
C  C4  1  0.58900000  0.94678000  0.86580000  1.0 -0.1155842102
C  C5  1  0.66530000  0.95040000  0.79510000  1.0 -0.0230096095
C  C6  1  0.73690000  0.89160000  0.78700000  1.0 -0.1155842102
C  C7  1  0.79860000  0.76130000  0.83830000  1.0 0.4569330805
C  C8  1  0.50320000  0.87749000  0.00670000  1.0 0.5958573588
C  C9  1  0.66920000  0.01756000  0.72710000  1.0 0.5921151407
C  C10  1  0.22980000  0.32890000  0.85020000  1.0 -0.0358749921
C  C11  1  0.15510000  0.32660000  0.92200000  1.0 -0.1431626871
C  C12  1  0.08450000  0.38456000  0.92950000  1.0 -0.0230096095
C  C13  1  0.08900000  0.44678000  0.86580000  1.0 -0.1155842102
C  C14  1  0.16530000  0.45040000  0.79510000  1.0 -0.0230096095
C  C15  1  0.23690000  0.39160000  0.78700000  1.0 -0.1155842102
C  C16  1  0.29860000  0.26130000  0.83830000  1.0 0.4569330805
C  C17  1  0.00320000  0.37749000  0.00670000  1.0 0.5958573588
C  C18  1  0.16920000  0.51756000  0.72710000  1.0 0.5921151407
C  C19  1  0.27020000  0.17110000  0.35020000  1.0 -0.0358749921
C  C20  1  0.34490000  0.17340000  0.42200000  1.0 -0.1431626871
C  C21  1  0.41550000  0.11544000  0.42950000  1.0 -0.0230096095
C  C22  1  0.41100000  0.05322000  0.36580000  1.0 -0.1155842102
C  C23  1  0.33470000  0.04960000  0.29510000  1.0 -0.0230096095
C  C24  1  0.26310000  0.10840000  0.28700000  1.0 -0.1155842102
C  C25  1  0.20140000  0.23870000  0.33830000  1.0 0.4569330805
C  C26  1  0.49680000  0.12251000  0.50670000  1.0 0.5958573588
C  C27  1  0.33080000  0.98244000  0.22710000  1.0 0.5921151407
C  C28  1  0.77020000  0.67110000  0.35020000  1.0 -0.0358749921
C  C29  1  0.84490000  0.67340000  0.42200000  1.0 -0.1431626871
C  C30  1  0.91550000  0.61544000  0.42950000  1.0 -0.0230096095
C  C31  1  0.91100000  0.55322000  0.36580000  1.0 -0.1155842102
C  C32  1  0.83470000  0.54960000  0.29510000  1.0 -0.0230096095
C  C33  1  0.76310000  0.60840000  0.28700000  1.0 -0.1155842102
C  C34  1  0.70140000  0.73870000  0.33830000  1.0 0.4569330805
C  C35  1  0.99680000  0.62251000  0.50670000  1.0 0.5958573588
C  C36  1  0.83080000  0.48244000  0.22710000  1.0 0.5921151407
C  C37  1  0.27020000  0.82890000  0.64980000  1.0 -0.0358749921
C  C38  1  0.34490000  0.82660000  0.57800000  1.0 -0.1431626871
C  C39  1  0.41550000  0.88456000  0.57050000  1.0 -0.0230096095
C  C40  1  0.41100000  0.94678000  0.63420000  1.0 -0.1155842102
C  C41  1  0.33470000  0.95040000  0.70490000  1.0 -0.0230096095
C  C42  1  0.26310000  0.89160000  0.71300000  1.0 -0.1155842102
C  C43  1  0.20140000  0.76130000  0.66170000  1.0 0.4569330805
C  C44  1  0.49680000  0.87749000  0.49330000  1.0 0.5958573588
C  C45  1  0.33080000  0.01756000  0.77290000  1.0 0.5921151407
C  C46  1  0.77020000  0.32890000  0.64980000  1.0 -0.0358749921
C  C47  1  0.84490000  0.32660000  0.57800000  1.0 -0.1431626871
C  C48  1  0.91550000  0.38456000  0.57050000  1.0 -0.0230096095
C  C49  1  0.91100000  0.44678000  0.63420000  1.0 -0.1155842102
C  C50  1  0.83470000  0.45040000  0.70490000  1.0 -0.0230096095
C  C51  1  0.76310000  0.39160000  0.71300000  1.0 -0.1155842102
C  C52  1  0.70140000  0.26130000  0.66170000  1.0 0.4569330805
C  C53  1  0.99680000  0.37749000  0.49330000  1.0 0.5958573588
C  C54  1  0.83080000  0.51756000  0.77290000  1.0 0.5921151407
C  C55  1  0.72980000  0.17110000  0.14980000  1.0 -0.0358749921
C  C56  1  0.65510000  0.17340000  0.07800000  1.0 -0.1431626871
C  C57  1  0.58450000  0.11544000  0.07050000  1.0 -0.0230096095
C  C58  1  0.58900000  0.05322000  0.13420000  1.0 -0.1155842102
C  C59  1  0.66530000  0.04960000  0.20490000  1.0 -0.0230096095
C  C60  1  0.73690000  0.10840000  0.21300000  1.0 -0.1155842102
C  C61  1  0.79860000  0.23870000  0.16170000  1.0 0.4569330805
C  C62  1  0.50320000  0.12251000  0.99330000  1.0 0.5958573588
C  C63  1  0.66920000  0.98244000  0.27290000  1.0 0.5921151407
C  C64  1  0.22980000  0.67110000  0.14980000  1.0 -0.0358749921
C  C65  1  0.15510000  0.67340000  0.07800000  1.0 -0.1431626871
C  C66  1  0.08450000  0.61544000  0.07050000  1.0 -0.0230096095
C  C67  1  0.08900000  0.55322000  0.13420000  1.0 -0.1155842102
C  C68  1  0.16530000  0.54960000  0.20490000  1.0 -0.0230096095
C  C69  1  0.23690000  0.60840000  0.21300000  1.0 -0.1155842102
C  C70  1  0.29860000  0.73870000  0.16170000  1.0 0.4569330805
C  C71  1  0.00320000  0.62251000  0.99330000  1.0 0.5958573588
C  C72  1  0.16920000  0.48244000  0.27290000  1.0 0.5921151407
O  O1  1  0.87071000  0.76344000  0.78003000  1.0 -0.5359882347
O  O4  1  0.51939000  0.83731000  0.08062000  1.0 -0.6393037669
O  O5  1  0.42076000  0.91264000  0.98912000  1.0 -0.5689208738
O  O6  1  0.61177000  0.07224000  0.73966000  1.0 -0.6393037669
O  O7  1  0.73200000  0.01615000  0.65540000  1.0 -0.5540175669
O  O8  1  0.37071000  0.26344000  0.78003000  1.0 -0.5359882347
O  O11  1  0.01939000  0.33731000  0.08062000  1.0 -0.6393037669
O  O12  1  0.92076000  0.41264000  0.98912000  1.0 -0.5689208738
O  O13  1  0.11177000  0.57224000  0.73966000  1.0 -0.6393037669
O  O14  1  0.23200000  0.51615000  0.65540000  1.0 -0.5540175669
O  O15  1  0.12929000  0.23656000  0.28003000  1.0 -0.5344046585
O  O18  1  0.48061000  0.16269000  0.58062000  1.0 -0.6393037669
O  O19  1  0.57924000  0.08736000  0.48912000  1.0 -0.5689208738
O  O20  1  0.38823000  0.92776000  0.23966000  1.0 -0.6393037669
O  O21  1  0.26800000  0.98385000  0.15540000  1.0 -0.5540175669
O  O22  1  0.62929000  0.73656000  0.28003000  1.0 -0.5359882347
O  O25  1  0.98061000  0.66269000  0.58062000  1.0 -0.6393037669
O  O26  1  0.07924000  0.58736000  0.48912000  1.0 -0.5689208738
O  O27  1  0.88823000  0.42776000  0.23966000  1.0 -0.6393037669
O  O28  1  0.76800000  0.48385000  0.15540000  1.0 -0.5540175669
O  O29  1  0.12929000  0.76344000  0.71997000  1.0 -0.5359882347
O  O32  1  0.48061000  0.83731000  0.41938000  1.0 -0.6393037669
O  O33  1  0.57924000  0.91264000  0.51088000  1.0 -0.5689208738
O  O34  1  0.38823000  0.07224000  0.76034000  1.0 -0.6393037669
O  O35  1  0.26800000  0.01615000  0.84460000  1.0 -0.5540175669
O  O36  1  0.62929000  0.26344000  0.71997000  1.0 -0.5359882347
O  O39  1  0.98061000  0.33731000  0.41938000  1.0 -0.6393037669
O  O40  1  0.07924000  0.41264000  0.51088000  1.0 -0.5689208738
O  O41  1  0.88823000  0.57224000  0.76034000  1.0 -0.6393037669
O  O42  1  0.76800000  0.51615000  0.84460000  1.0 -0.5540175669
O  O43  1  0.87071000  0.23656000  0.21997000  1.0 -0.5359882347
O  O46  1  0.51939000  0.16269000  0.91938000  1.0 -0.6393037669
O  O47  1  0.42076000  0.08736000  0.01088000  1.0 -0.5689208738
O  O48  1  0.61177000  0.92776000  0.26034000  1.0 -0.6393037669
O  O49  1  0.73200000  0.98385000  0.34460000  1.0 -0.5540175669
O  O50  1  0.37071000  0.73656000  0.21997000  1.0 -0.5359882347
O  O53  1  0.01939000  0.66269000  0.91938000  1.0 -0.6393037669
O  O54  1  0.92076000  0.58736000  0.01088000  1.0 -0.5689208738
O  O55  1  0.11177000  0.42776000  0.26034000  1.0 -0.6393037669
O  O56  1  0.23200000  0.48385000  0.34460000  1.0 -0.5540175669
O  O2  1  0.79492000  0.71359000  0.90125000  0.5 -0.0765368626
O  O3  1  0.75943000  0.70077000  0.88363000  0.5 -0.0688584065
O  O9  1  0.29492000  0.21359000  0.90125000  0.5 -0.0765368626
O  O10  1  0.25943000  0.20077000  0.88363000  0.5 -0.0688584065
O  O16  1  0.20508000  0.28641000  0.40125000  0.5 -0.0765368626
O  O17  1  0.24057000  0.29923000  0.38363000  0.5 -0.0688584065
O  O23  1  0.70508000  0.78641000  0.40125000  0.5 -0.0765368626
O  O24  1  0.74057000  0.79923000  0.38363000  0.5 -0.0688584065
O  O30  1  0.20508000  0.71359000  0.59875000  0.5 -0.0765368626
O  O31  1  0.24057000  0.70077000  0.61637000  0.5 -0.0688584065
O  O37  1  0.70508000  0.21359000  0.59875000  0.5 -0.0765368626
O  O38  1  0.74057000  0.20077000  0.61637000  0.5 -0.0688584065
O  O44  1  0.79492000  0.28641000  0.09875000  0.5 -0.0765368626
O  O45  1  0.75943000  0.29923000  0.11637000  0.5 -0.0688584065
O  O51  1  0.29492000  0.78641000  0.09875000  0.5 -0.0688584065
O  O52  1  0.25943000  0.79923000  0.11637000  0.5 -0.0688584065
