# DDEC6 charges by PACMAN v1.1 (https://github.com/mtap-research/PACMAN-charge/)
data_2017[Zn][dia]3[FSR]6
_chemical_formula_sum              "Zn6 H32 C46 O28"
_cell_length_a       10.702
_cell_length_b       11.418
_cell_length_c       20.137
_cell_angle_alpha    90
_cell_angle_beta     90
_cell_angle_gamma    90

_symmetry_space_group_name_H-M    "P 1"
_symmetry_Int_Tables_number       1

loop_
  _symmetry_equiv_pos_as_xyz
  'x, y, z'

loop_
  _atom_site_type_symbol
  _atom_site_label
  _atom_site_symmetry_multiplicity
  _atom_site_fract_x
  _atom_site_fract_y
  _atom_site_fract_z
  _atom_site_occupancy
  _atom_site_charge
Zn  Zn1       1.0  0.86070  0.54570  0.00000  1.0000 1.0451077905
Zn  Zn2       1.0  0.13930  0.04570  0.50000  1.0000 1.0445262876
Zn  Zn3       1.0  0.12913  0.45551  0.07895  1.0000 0.9335774865
Zn  Zn4       1.0  0.87087  0.95551  0.42105  1.0000 0.9335774865
Zn  Zn5       1.0  0.12913  0.45551  0.92105  1.0000 0.9335774865
Zn  Zn6       1.0  0.87087  0.95551  0.57895  1.0000 0.9335774865
H   H1        1.0  0.56340  0.11450  0.15940  1.0000 0.11427495
H   H2        1.0  0.43660  0.61450  0.34060  1.0000 0.11427495
H   H3        1.0  0.56340  0.11450  0.84060  1.0000 0.11427495
H   H4        1.0  0.43660  0.61450  0.65940  1.0000 0.11427495
H   H5        1.0  0.65310  0.05430  0.25630  1.0000 0.1268430736
H   H6        1.0  0.34690  0.55430  0.24370  1.0000 0.1268430736
H   H7        1.0  0.65310  0.05430  0.74370  1.0000 0.1268430736
H   H8        1.0  0.34690  0.55430  0.75630  1.0000 0.1268430736
H   H9        1.0  0.95680  0.24290  0.21520  1.0000 0.1268430736
H   H10       1.0  0.04320  0.74290  0.28480  1.0000 0.1268430736
H   H11       1.0  0.95680  0.24290  0.78480  1.0000 0.1268430736
H   H12       1.0  0.04320  0.74290  0.71520  1.0000 0.1268430736
H   H13       1.0  0.78830  0.19360  0.00000  1.0000 0.1210245824
H   H14       1.0  0.21170  0.69360  0.50000  1.0000 0.1210245824
H   H15       1.0  0.48250  0.29790  0.10080  1.0000 0.1210245824
H   H16       1.0  0.51750  0.79790  0.39920  1.0000 0.1210245824
H   H17       1.0  0.48250  0.29790  0.89920  1.0000 0.1210245824
H   H18       1.0  0.51750  0.79790  0.60080  1.0000 0.1210245824
H   H19       1.0  0.85170  0.71530  0.10940  1.0000 0.4159695294
H   H20       1.0  0.14830  0.21530  0.39060  1.0000 0.4159695294
H   H21       1.0  0.85170  0.71530  0.89060  1.0000 0.4159695294
H   H22       1.0  0.14830  0.21530  0.60940  1.0000 0.4159695294
H   H23       1.0  0.94190  0.71150  0.06090  1.0000 0.3619668682
H   H24       1.0  0.05810  0.21150  0.43910  1.0000 0.3619668682
H   H25       1.0  0.94190  0.71150  0.93910  1.0000 0.3619668682
H   H26       1.0  0.05810  0.21150  0.56090  1.0000 0.3619668682
H   H27       1.0  0.10870  0.59190  0.00000  1.0000 0.3619668682
H   H28       1.0  0.89130  0.09190  0.50000  1.0000 0.3619668682
H   H29       1.0  0.62790  0.63440  0.00000  1.0000 0.3692007449
H   H30       1.0  0.37210  0.13440  0.50000  1.0000 0.3692007449
H   H31       1.0  0.61580  0.51340  0.00000  1.0000 0.3619668682
H   H32       1.0  0.38420  0.01340  0.50000  1.0000 0.3619668682
C   C1        1.0  0.89640  0.34260  0.10350  1.0000 0.6039147165
C   C2        1.0  0.10360  0.84260  0.39650  1.0000 0.6039147165
C   C3        1.0  0.89640  0.34260  0.89650  1.0000 0.6039147165
C   C4        1.0  0.10360  0.84260  0.60350  1.0000 0.6039147165
C   C5        1.0  0.82570  0.25090  0.14200  1.0000 -0.071872946
C   C6        1.0  0.17430  0.75090  0.35800  1.0000 -0.071872946
C   C7        1.0  0.82570  0.25090  0.85800  1.0000 -0.071872946
C   C8        1.0  0.17430  0.75090  0.64200  1.0000 -0.071872946
C   C9        1.0  0.70740  0.21110  0.12470  1.0000 0.0588091288
C   C10       1.0  0.29260  0.71110  0.37530  1.0000 0.0588091288
C   C11       1.0  0.70740  0.21110  0.87530  1.0000 0.0588091288
C   C12       1.0  0.29260  0.71110  0.62470  1.0000 0.0588091288
C   C13       1.0  0.64390  0.13920  0.16960  1.0000 -0.1436872396
C   C14       1.0  0.35610  0.63920  0.33040  1.0000 -0.1436872396
C   C15       1.0  0.64390  0.13920  0.83040  1.0000 -0.1436872396
C   C16       1.0  0.35610  0.63920  0.66960  1.0000 -0.1436872396
C   C17       1.0  0.69630  0.10430  0.22800  1.0000 -0.0926239609
C   C18       1.0  0.30370  0.60430  0.27200  1.0000 -0.0926239609
C   C19       1.0  0.69630  0.10430  0.77200  1.0000 -0.0926239609
C   C20       1.0  0.30370  0.60430  0.72800  1.0000 -0.0926239609
C   C21       1.0  0.81680  0.14470  0.24520  1.0000 -0.0245877535
C   C22       1.0  0.18320  0.64470  0.25480  1.0000 -0.0245877535
C   C23       1.0  0.81680  0.14470  0.75480  1.0000 -0.0245877535
C   C24       1.0  0.18320  0.64470  0.74520  1.0000 -0.0245877535
C   C25       1.0  0.87790  0.21580  0.20350  1.0000 -0.1046884421
C   C26       1.0  0.12210  0.71580  0.29650  1.0000 -0.1046884421
C   C27       1.0  0.87790  0.21580  0.79650  1.0000 -0.1046884421
C   C28       1.0  0.12210  0.71580  0.70350  1.0000 -0.1046884421
C   C29       1.0  0.87310  0.10360  0.30960  1.0000 0.5685016003
C   C30       1.0  0.12690  0.60360  0.19040  1.0000 0.5685016003
C   C31       1.0  0.87310  0.10360  0.69040  1.0000 0.5685016003
C   C32       1.0  0.12690  0.60360  0.80960  1.0000 0.5685016003
C   C33       1.0  0.70620  0.22040  0.00000  1.0000 -0.1676709193
C   C34       1.0  0.29380  0.72040  0.50000  1.0000 -0.1676709193
C   C35       1.0  0.64540  0.24020  0.06070  1.0000 0.0806500178
C   C36       1.0  0.35460  0.74020  0.43930  1.0000 0.0806500178
C   C37       1.0  0.64540  0.24020  0.93930  1.0000 0.0806500178
C   C38       1.0  0.35460  0.74020  0.56070  1.0000 0.0806500178
C   C39       1.0  0.52290  0.28290  0.06080  1.0000 -0.1754794929
C   C40       1.0  0.47710  0.78290  0.43920  1.0000 -0.1754794929
C   C41       1.0  0.52290  0.28290  0.93920  1.0000 -0.1754794929
C   C42       1.0  0.47710  0.78290  0.56080  1.0000 -0.1754794929
C   C43       1.0  0.46050  0.30320  0.00000  1.0000 -0.071872946
C   C44       1.0  0.53950  0.80320  0.50000  1.0000 -0.071872946
C   C45       1.0  0.33470  0.35170  0.00000  1.0000 0.5817272153
C   C46       1.0  0.66530  0.85170  0.50000  1.0000 0.5817272153
O   O1        1.0  0.83830  0.41890  0.07370  1.0000 -0.5598668803
O   O2        1.0  0.16170  0.91890  0.42630  1.0000 -0.5598668803
O   O3        1.0  0.83830  0.41890  0.92630  1.0000 -0.5598668803
O   O4        1.0  0.16170  0.91890  0.57370  1.0000 -0.5598668803
O   O5        1.0  0.01620  0.33170  0.10470  1.0000 -0.5521996293
O   O6        1.0  0.98380  0.83170  0.39530  1.0000 -0.5598668803
O   O7        1.0  0.01620  0.33170  0.89530  1.0000 -0.5598668803
O   O8        1.0  0.98380  0.83170  0.60470  1.0000 -0.5598668803
O   O9        1.0  0.98260  0.13570  0.32200  1.0000 -0.5598668803
O   O10       1.0  0.01740  0.63570  0.17800  1.0000 -0.5598668803
O   O11       1.0  0.98260  0.13570  0.67800  1.0000 -0.5598668803
O   O12       1.0  0.01740  0.63570  0.82200  1.0000 -0.5598668803
O   O13       1.0  0.80870  0.03880  0.34620  1.0000 -0.5521996293
O   O14       1.0  0.19130  0.53880  0.15380  1.0000 -0.5521996293
O   O15       1.0  0.80870  0.03880  0.65380  1.0000 -0.5521996293
O   O16       1.0  0.19130  0.53880  0.84620  1.0000 -0.5521996293
O   O17       1.0  0.28280  0.37050  0.05520  1.0000 -0.5372675572
O   O18       1.0  0.71720  0.87050  0.44480  1.0000 -0.5372675572
O   O19       1.0  0.28280  0.37050  0.94480  1.0000 -0.5372675572
O   O20       1.0  0.71720  0.87050  0.55520  1.0000 -0.5372675572
O   O21       1.0  0.06270  0.53420  0.00000  1.0000 -0.8489478144
O   O22       1.0  0.93730  0.03420  0.50000  1.0000 -0.8489478144
O   O23       1.0  0.86730  0.67290  0.07330  1.0000 -0.689140043
O   O24       1.0  0.13270  0.17290  0.42670  1.0000 -0.689140043
O   O25       1.0  0.86730  0.67290  0.92670  1.0000 -0.689140043
O   O26       1.0  0.13270  0.17290  0.57330  1.0000 -0.689140043
O   O27       1.0  0.66750  0.56990  0.00000  1.0000 -0.638499907
O   O28       1.0  0.33250  0.06990  0.50000  1.0000 -0.638499907
