# DDEC6 charges by PACMAN v1.1 (https://github.com/mtap-research/PACMAN-charge/)
data_ja8b02994_si_009_ASR_pacman
_symmetry_space_group_name_H-M   'P 1'
_cell_length_a   11.14900000
_cell_length_b   15.86900000
_cell_length_c   22.60800000
_cell_angle_alpha   90.00000000
_cell_angle_beta   90.00000000
_cell_angle_gamma   90.00000000
_symmetry_Int_Tables_number   1
_chemical_formula_structural   ZnH12C28BrNO4
_chemical_formula_sum   'Zn2 H24 C56 Br2 N2 O8'
_cell_volume   3999.88605845
_cell_formula_units_Z   2
loop_
 _symmetry_equiv_pos_site_id
 _symmetry_equiv_pos_as_xyz
  1  'x, y, z'
loop_
 _atom_site_type_symbol
 _atom_site_label
 _atom_site_symmetry_multiplicity
 _atom_site_fract_x
 _atom_site_fract_y
 _atom_site_fract_z
 _atom_site_occupancy
 _atom_site_charge
Zn  Zn1  1  0.50000000  0.50000000  0.06528000  1.0 0.7840814246
Zn  Zn2  1  0.50000000  0.50000000  0.93472000  1.0 0.7840814246
H  H1  1  0.13658000  0.17072000  0.08776000  1.0 0.1219291938
H  H2  1  0.25011000  0.29626000  0.08802000  1.0 0.1261380193
H  H3  1  0.86342000  0.82928000  0.08776000  1.0 0.1219291938
H  H4  1  0.74989000  0.70374000  0.08802000  1.0 0.1261380193
H  H5  1  0.86342000  0.17072000  0.91224000  1.0 0.1219291938
H  H6  1  0.74989000  0.29626000  0.91198000  1.0 0.1261380193
H  H7  1  0.13658000  0.82928000  0.91224000  1.0 0.1219291938
H  H8  1  0.25011000  0.70374000  0.91198000  1.0 0.1261380193
H  H9  1  0.86342000  0.82928000  0.91224000  1.0 0.1219291938
H  H10  1  0.74989000  0.70374000  0.91198000  1.0 0.1261380193
H  H11  1  0.13658000  0.17072000  0.91224000  1.0 0.1219291938
H  H12  1  0.25011000  0.29626000  0.91198000  1.0 0.1261380193
H  H13  1  0.13658000  0.82928000  0.08776000  1.0 0.1219291938
H  H14  1  0.25011000  0.70374000  0.08802000  1.0 0.1261380193
H  H15  1  0.86342000  0.17072000  0.08776000  1.0 0.1219291938
H  H16  1  0.74989000  0.29626000  0.08802000  1.0 0.1261380193
H  H17  1  0.34893000  0.43773000  0.16358000  0.5 0.1219291938
H  H18  1  0.34780000  0.43023000  0.26662000  0.5 0.111418615
H  H19  1  0.65107000  0.56227000  0.16358000  0.5 0.1219291938
H  H20  1  0.65220000  0.56977000  0.26662000  0.5 0.111418615
H  H21  1  0.65107000  0.43773000  0.83642000  0.5 0.1219291938
H  H22  1  0.65220000  0.43023000  0.73338000  0.5 0.111418615
H  H23  1  0.34893000  0.56227000  0.83642000  0.5 0.1219291938
H  H24  1  0.34780000  0.56977000  0.73338000  0.5 0.111418615
H  H25  1  0.65107000  0.56227000  0.83642000  0.5 0.1219291938
H  H26  1  0.65220000  0.56977000  0.73338000  0.5 0.111418615
H  H27  1  0.34893000  0.43773000  0.83642000  0.5 0.1219291938
H  H28  1  0.34780000  0.43023000  0.73338000  0.5 0.111418615
H  H29  1  0.34893000  0.56227000  0.16358000  0.5 0.1219291938
H  H30  1  0.34780000  0.56977000  0.26662000  0.5 0.111418615
H  H31  1  0.65107000  0.43773000  0.16358000  0.5 0.1219291938
H  H32  1  0.65220000  0.43023000  0.26662000  0.5 0.111418615
C  C1  1  0.16030000  0.19540000  0.05180000  1.0 -0.1483356269
C  C2  1  0.22820000  0.27080000  0.05200000  1.0 -0.0997495946
C  C3  1  0.83970000  0.80460000  0.05180000  1.0 -0.1483356269
C  C4  1  0.77180000  0.72920000  0.05200000  1.0 -0.0997495946
C  C5  1  0.83970000  0.19540000  0.94820000  1.0 -0.1483356269
C  C6  1  0.77180000  0.27080000  0.94800000  1.0 -0.0997495946
C  C7  1  0.16030000  0.80460000  0.94820000  1.0 -0.1483356269
C  C8  1  0.22820000  0.72920000  0.94800000  1.0 -0.0997495946
C  C9  1  0.83970000  0.80460000  0.94820000  1.0 -0.1483356269
C  C10  1  0.77180000  0.72920000  0.94800000  1.0 -0.0997495946
C  C11  1  0.16030000  0.19540000  0.94820000  1.0 -0.1483356269
C  C12  1  0.22820000  0.27080000  0.94800000  1.0 -0.0997495946
C  C13  1  0.16030000  0.80460000  0.05180000  1.0 -0.1483356269
C  C14  1  0.22820000  0.72920000  0.05200000  1.0 -0.0997495946
C  C15  1  0.83970000  0.19540000  0.05180000  1.0 -0.1483356269
C  C16  1  0.77180000  0.27080000  0.05200000  1.0 -0.0997495946
C  C17  1  0.50000000  0.50000000  0.27710000  1.0 0.0603181952
C  C18  1  0.50000000  0.50000000  0.34560000  1.0 0.0331029919
C  C19  1  0.50000000  0.50000000  0.46610000  1.0 0.0436033112
C  C20  1  0.50000000  0.50000000  0.72290000  1.0 0.0603181952
C  C21  1  0.50000000  0.50000000  0.65440000  1.0 0.0331029919
C  C22  1  0.50000000  0.50000000  0.53390000  1.0 0.0436033112
C  C23  1  0.12390000  0.00000000  0.00000000  1.0 0.0062733481
C  C24  1  0.87610000  0.00000000  0.00000000  1.0 0.0062733481
C  C25  1  0.34560000  0.38270000  0.00000000  1.0 0.5808200789
C  C26  1  0.26150000  0.30600000  0.00000000  1.0 -0.0119564437
C  C27  1  0.12940000  0.15910000  0.00000000  1.0 0.074641685
C  C28  1  0.06160000  0.07690000  0.00000000  1.0 -0.0119564437
C  C29  1  0.65440000  0.61730000  0.00000000  1.0 0.5808200789
C  C30  1  0.73850000  0.69400000  0.00000000  1.0 -0.0119564437
C  C31  1  0.87060000  0.84090000  0.00000000  1.0 0.0752521855
C  C32  1  0.93840000  0.92310000  0.00000000  1.0 -0.0119564437
C  C33  1  0.65440000  0.38270000  0.00000000  1.0 0.5808200789
C  C34  1  0.73850000  0.30600000  0.00000000  1.0 -0.0119564437
C  C35  1  0.87060000  0.15910000  0.00000000  1.0 0.074641685
C  C36  1  0.93840000  0.07690000  0.00000000  1.0 -0.0119564437
C  C37  1  0.34560000  0.61730000  0.00000000  1.0 0.5808200789
C  C38  1  0.26150000  0.69400000  0.00000000  1.0 -0.0119564437
C  C39  1  0.12940000  0.84090000  0.00000000  1.0 0.074641685
C  C40  1  0.06160000  0.92310000  0.00000000  1.0 -0.0119564437
C  C41  1  0.41470000  0.46330000  0.18430000  0.5 -0.0119564437
C  C42  1  0.41010000  0.46040000  0.24640000  0.5 -0.1050204682
C  C43  1  0.58500000  0.44950000  0.37430000  0.5 -0.0519121653
C  C44  1  0.58680000  0.44910000  0.43960000  0.5 -0.0305743376
C  C45  1  0.58530000  0.53670000  0.18430000  0.5 -0.0119564437
C  C46  1  0.58990000  0.53960000  0.24640000  0.5 -0.1050204682
C  C47  1  0.41500000  0.55050000  0.37430000  0.5 -0.0519121653
C  C48  1  0.41320000  0.55090000  0.43960000  0.5 -0.0305743376
C  C49  1  0.58530000  0.46330000  0.81570000  0.5 -0.0119564437
C  C50  1  0.58990000  0.46040000  0.75360000  0.5 -0.0997495946
C  C51  1  0.41500000  0.44950000  0.62570000  0.5 -0.0519121653
C  C52  1  0.41320000  0.44910000  0.56040000  0.5 -0.0305743376
C  C53  1  0.41470000  0.53670000  0.81570000  0.5 -0.0119564437
C  C54  1  0.41010000  0.53960000  0.75360000  0.5 -0.1050204682
C  C55  1  0.58500000  0.55050000  0.62570000  0.5 -0.0519121653
C  C56  1  0.58680000  0.55090000  0.56040000  0.5 -0.0305743376
C  C57  1  0.58530000  0.53670000  0.81570000  0.5 -0.0119564437
C  C58  1  0.58990000  0.53960000  0.75360000  0.5 -0.1050204682
C  C59  1  0.41500000  0.55050000  0.62570000  0.5 -0.0519121653
C  C60  1  0.41320000  0.55090000  0.56040000  0.5 -0.0305743376
C  C61  1  0.41470000  0.46330000  0.81570000  0.5 -0.0119564437
C  C62  1  0.41010000  0.46040000  0.75360000  0.5 -0.1050204682
C  C63  1  0.58500000  0.44950000  0.62570000  0.5 -0.0519121653
C  C64  1  0.58680000  0.44910000  0.56040000  0.5 -0.0305743376
C  C65  1  0.41470000  0.53670000  0.18430000  0.5 -0.0119564437
C  C66  1  0.41010000  0.53960000  0.24640000  0.5 -0.1050204682
C  C67  1  0.58500000  0.55050000  0.37430000  0.5 -0.0519121653
C  C68  1  0.58680000  0.55090000  0.43960000  0.5 -0.0305743376
C  C69  1  0.58530000  0.46330000  0.18430000  0.5 -0.0119564437
C  C70  1  0.58990000  0.46040000  0.24640000  0.5 -0.1050204682
C  C71  1  0.41500000  0.44950000  0.37430000  0.5 -0.0519121653
C  C72  1  0.41320000  0.44910000  0.43960000  0.5 -0.0305743376
Br  Br1  1  0.29077000  0.00000000  0.00000000  1.0 -0.0430263402
Br  Br2  1  0.70923000  0.00000000  0.00000000  1.0 -0.0430263402
N  N1  1  0.50000000  0.50000000  0.15100000  1.0 -0.1483356269
N  N2  1  0.50000000  0.50000000  0.84900000  1.0 -0.1483356269
O  O1  1  0.37500000  0.40950000  0.04950000  1.0 -0.5343803214
O  O2  1  0.62500000  0.59050000  0.04950000  1.0 -0.5343803214
O  O3  1  0.62500000  0.40950000  0.95050000  1.0 -0.5343803214
O  O4  1  0.37500000  0.59050000  0.95050000  1.0 -0.5343803214
O  O5  1  0.62500000  0.59050000  0.95050000  1.0 -0.5343803214
O  O6  1  0.37500000  0.40950000  0.95050000  1.0 -0.5343803214
O  O7  1  0.37500000  0.59050000  0.04950000  1.0 -0.5343803214
O  O8  1  0.62500000  0.40950000  0.04950000  1.0 -0.5343803214
