# DDEC6 charges by PACMAN v1.1 (https://github.com/mtap-research/PACMAN-charge/)
data_2021[Zn][dmp]3[FSR]1
_chemical_formula_sum              "Zn8 H160 C160 N16 O32"
_cell_length_a       11.8428
_cell_length_b       15.9866
_cell_length_c       25.1315
_cell_angle_alpha    90
_cell_angle_beta     90
_cell_angle_gamma    90

_symmetry_space_group_name_H-M    "P 1"
_symmetry_Int_Tables_number       1

loop_
  _symmetry_equiv_pos_as_xyz
  'x, y, z'

loop_
  _atom_site_type_symbol
  _atom_site_label
  _atom_site_symmetry_multiplicity
  _atom_site_fract_x
  _atom_site_fract_y
  _atom_site_fract_z
  _atom_site_occupancy
  _atom_site_charge
Zn  Zn1       1.0  0.25000  0.25000  0.20050  1.0000 0.7296430735
Zn  Zn2       1.0  0.25000  0.75000  0.70050  1.0000 0.7296430735
Zn  Zn3       1.0  0.75000  0.75000  0.56390  1.0000 0.7408886819
Zn  Zn4       1.0  0.75000  0.25000  0.06390  1.0000 0.7408886819
Zn  Zn5       1.0  0.75000  0.25000  0.29950  1.0000 0.7296430735
Zn  Zn6       1.0  0.75000  0.75000  0.79950  1.0000 0.7296430735
Zn  Zn7       1.0  0.25000  0.75000  0.93610  1.0000 0.7408886819
Zn  Zn8       1.0  0.25000  0.25000  0.43610  1.0000 0.7408886819
H   H1        1.0  0.39880  0.01300  0.16060  1.0000 0.0996512311
H   H2        1.0  0.10120  0.48700  0.16060  1.0000 0.0996512311
H   H3        1.0  0.39880  0.98700  0.66060  1.0000 0.0996512311
H   H4        1.0  0.10120  0.51300  0.66060  1.0000 0.0996512311
H   H5        1.0  0.56120  0.08540  0.17430  1.0000 0.0996512311
H   H6        1.0  0.93880  0.41460  0.17430  1.0000 0.0996512311
H   H7        1.0  0.56120  0.91460  0.67430  1.0000 0.0996512311
H   H8        1.0  0.93880  0.58540  0.67430  1.0000 0.0996512311
H   H9        1.0  0.59200  0.94870  0.15230  1.0000 0.0889014111
H   H10       1.0  0.90800  0.55130  0.15230  1.0000 0.0889014111
H   H11       1.0  0.59200  0.05130  0.65230  1.0000 0.0889014111
H   H12       1.0  0.90800  0.44870  0.65230  1.0000 0.0889014111
H   H13       1.0  0.68970  0.00250  0.12450  1.0000 0.0889014111
H   H14       1.0  0.81030  0.49750  0.12450  1.0000 0.0889014111
H   H15       1.0  0.68970  0.99750  0.62450  1.0000 0.0889014111
H   H16       1.0  0.81030  0.50250  0.62450  1.0000 0.0889014111
H   H17       1.0  0.59290  0.99630  0.04190  1.0000 0.0996512311
H   H18       1.0  0.90710  0.50370  0.04190  1.0000 0.0996512311
H   H19       1.0  0.59290  0.00370  0.54190  1.0000 0.0996512311
H   H20       1.0  0.90710  0.49630  0.54190  1.0000 0.0996512311
H   H21       1.0  0.61520  0.90320  0.06320  1.0000 0.0996512311
H   H22       1.0  0.88480  0.59680  0.06320  1.0000 0.0996512311
H   H23       1.0  0.61520  0.09680  0.56320  1.0000 0.0996512311
H   H24       1.0  0.88480  0.40320  0.56320  1.0000 0.0996512311
H   H25       1.0  0.42850  0.89520  0.09620  1.0000 0.0889014111
H   H26       1.0  0.07150  0.60480  0.09620  1.0000 0.0889014111
H   H27       1.0  0.42850  0.10480  0.59620  1.0000 0.0889014111
H   H28       1.0  0.07150  0.39520  0.59620  1.0000 0.0889014111
H   H29       1.0  0.42470  0.91700  0.03400  1.0000 0.0805222144
H   H30       1.0  0.07530  0.58300  0.03400  1.0000 0.0805222144
H   H31       1.0  0.42470  0.08300  0.53400  1.0000 0.0805222144
H   H32       1.0  0.07530  0.41700  0.53400  1.0000 0.0805222144
H   H33       1.0  0.38920  0.05890  0.05250  1.0000 0.1086657023
H   H34       1.0  0.11080  0.44110  0.05250  1.0000 0.1086657023
H   H35       1.0  0.38920  0.94110  0.55250  1.0000 0.1086657023
H   H36       1.0  0.11080  0.55890  0.55250  1.0000 0.1086657023
H   H37       1.0  0.29740  0.00390  0.08370  1.0000 0.0889014111
H   H38       1.0  0.20260  0.49610  0.08370  1.0000 0.0889014111
H   H39       1.0  0.29740  0.99610  0.58370  1.0000 0.0889014111
H   H40       1.0  0.20260  0.50390  0.58370  1.0000 0.0889014111
H   H41       1.0  0.23280  0.06270  0.23170  1.0000 0.0996512311
H   H42       1.0  0.26720  0.43730  0.23170  1.0000 0.0996512311
H   H43       1.0  0.23280  0.93730  0.73170  1.0000 0.0996512311
H   H44       1.0  0.26720  0.56270  0.73170  1.0000 0.0996512311
H   H45       1.0  0.14630  0.98090  0.29630  1.0000 0.1195078722
H   H46       1.0  0.35370  0.51910  0.29630  1.0000 0.1195078722
H   H47       1.0  0.14630  0.01910  0.79630  1.0000 0.1195078722
H   H48       1.0  0.35370  0.48090  0.79630  1.0000 0.1195078722
H   H49       1.0  0.00690  0.19150  0.35670  1.0000 0.1493142514
H   H50       1.0  0.49310  0.30850  0.35670  1.0000 0.1493142514
H   H51       1.0  0.00690  0.80850  0.85670  1.0000 0.1493142514
H   H52       1.0  0.49310  0.69150  0.85670  1.0000 0.1493142514
H   H53       1.0  0.09720  0.26590  0.29140  1.0000 0.1086657023
H   H54       1.0  0.40280  0.23410  0.29140  1.0000 0.1086657023
H   H55       1.0  0.09720  0.73410  0.79140  1.0000 0.1086657023
H   H56       1.0  0.40280  0.76590  0.79140  1.0000 0.1086657023
H   H57       1.0  0.95590  0.06410  0.39880  1.0000 0.1292481541
H   H58       1.0  0.54410  0.43590  0.39880  1.0000 0.1292481541
H   H59       1.0  0.95590  0.93590  0.89880  1.0000 0.1292481541
H   H60       1.0  0.54410  0.56410  0.89880  1.0000 0.1292481541
H   H61       1.0  0.06680  0.92150  0.36440  1.0000 0.1195078722
H   H62       1.0  0.43320  0.57850  0.36440  1.0000 0.1195078722
H   H63       1.0  0.06680  0.07850  0.86440  1.0000 0.1195078722
H   H64       1.0  0.43320  0.42150  0.86440  1.0000 0.1195078722
H   H65       1.0  0.99940  0.79300  0.40620  1.0000 0.140787169
H   H66       1.0  0.50060  0.70700  0.40620  1.0000 0.140787169
H   H67       1.0  0.99940  0.20700  0.90620  1.0000 0.140787169
H   H68       1.0  0.50060  0.29300  0.90620  1.0000 0.140787169
H   H69       1.0  0.90590  0.72250  0.47250  1.0000 0.1086657023
H   H70       1.0  0.59410  0.77750  0.47250  1.0000 0.1086657023
H   H71       1.0  0.90590  0.27750  0.97250  1.0000 0.1086657023
H   H72       1.0  0.59410  0.22250  0.97250  1.0000 0.1086657023
H   H73       1.0  0.79650  0.93190  0.53570  1.0000 0.1086657023
H   H74       1.0  0.70350  0.56810  0.53570  1.0000 0.1086657023
H   H75       1.0  0.79650  0.06810  0.03570  1.0000 0.1086657023
H   H76       1.0  0.70350  0.43190  0.03570  1.0000 0.1086657023
H   H77       1.0  0.88890  0.00810  0.47010  1.0000 0.140787169
H   H78       1.0  0.61110  0.49190  0.47010  1.0000 0.140787169
H   H79       1.0  0.88890  0.99190  0.97010  1.0000 0.140787169
H   H80       1.0  0.61110  0.50810  0.97010  1.0000 0.140787169
H   H81       1.0  0.60120  0.01300  0.33940  1.0000 0.0996512311
H   H82       1.0  0.89880  0.48700  0.33940  1.0000 0.0996512311
H   H83       1.0  0.60120  0.98700  0.83940  1.0000 0.0996512311
H   H84       1.0  0.89880  0.51300  0.83940  1.0000 0.0996512311
H   H85       1.0  0.43880  0.08540  0.32570  1.0000 0.0996512311
H   H86       1.0  0.06120  0.41460  0.32570  1.0000 0.0996512311
H   H87       1.0  0.43880  0.91460  0.82570  1.0000 0.0996512311
H   H88       1.0  0.06120  0.58540  0.82570  1.0000 0.0996512311
H   H89       1.0  0.40800  0.94870  0.34770  1.0000 0.0889014111
H   H90       1.0  0.09200  0.55130  0.34770  1.0000 0.0889014111
H   H91       1.0  0.40800  0.05130  0.84770  1.0000 0.0889014111
H   H92       1.0  0.09200  0.44870  0.84770  1.0000 0.0889014111
H   H93       1.0  0.31030  0.00250  0.37550  1.0000 0.0889014111
H   H94       1.0  0.18970  0.49750  0.37550  1.0000 0.0889014111
H   H95       1.0  0.31030  0.99750  0.87550  1.0000 0.0889014111
H   H96       1.0  0.18970  0.50250  0.87550  1.0000 0.0889014111
H   H97       1.0  0.40710  0.99630  0.45810  1.0000 0.0996512311
H   H98       1.0  0.09290  0.50370  0.45810  1.0000 0.0996512311
H   H99       1.0  0.40710  0.00370  0.95810  1.0000 0.0996512311
H   H100      1.0  0.09290  0.49630  0.95810  1.0000 0.0996512311
H   H101      1.0  0.38480  0.90320  0.43680  1.0000 0.0996512311
H   H102      1.0  0.11520  0.59680  0.43680  1.0000 0.0996512311
H   H103      1.0  0.38480  0.09680  0.93680  1.0000 0.0996512311
H   H104      1.0  0.11520  0.40320  0.93680  1.0000 0.0996512311
H   H105      1.0  0.57150  0.89520  0.40380  1.0000 0.0889014111
H   H106      1.0  0.92850  0.60480  0.40380  1.0000 0.0889014111
H   H107      1.0  0.57150  0.10480  0.90380  1.0000 0.0889014111
H   H108      1.0  0.92850  0.39520  0.90380  1.0000 0.0889014111
H   H109      1.0  0.57530  0.91700  0.46600  1.0000 0.0805222144
H   H110      1.0  0.92470  0.58300  0.46600  1.0000 0.0805222144
H   H111      1.0  0.57530  0.08300  0.96600  1.0000 0.0805222144
H   H112      1.0  0.92470  0.41700  0.96600  1.0000 0.0805222144
H   H113      1.0  0.61080  0.05890  0.44750  1.0000 0.1086657023
H   H114      1.0  0.88920  0.44110  0.44750  1.0000 0.1086657023
H   H115      1.0  0.61080  0.94110  0.94750  1.0000 0.1086657023
H   H116      1.0  0.88920  0.55890  0.94750  1.0000 0.1086657023
H   H117      1.0  0.70260  0.00390  0.41630  1.0000 0.0889014111
H   H118      1.0  0.79740  0.49610  0.41630  1.0000 0.0889014111
H   H119      1.0  0.70260  0.99610  0.91630  1.0000 0.0889014111
H   H120      1.0  0.79740  0.50390  0.91630  1.0000 0.0889014111
H   H121      1.0  0.76720  0.06270  0.26830  1.0000 0.0996512311
H   H122      1.0  0.73280  0.43730  0.26830  1.0000 0.0996512311
H   H123      1.0  0.76720  0.93730  0.76830  1.0000 0.0996512311
H   H124      1.0  0.73280  0.56270  0.76830  1.0000 0.0996512311
H   H125      1.0  0.85370  0.98090  0.20370  1.0000 0.1195078722
H   H126      1.0  0.64630  0.51910  0.20370  1.0000 0.1195078722
H   H127      1.0  0.85370  0.01910  0.70370  1.0000 0.1195078722
H   H128      1.0  0.64630  0.48090  0.70370  1.0000 0.1195078722
H   H129      1.0  0.99310  0.19150  0.14330  1.0000 0.1493142514
H   H130      1.0  0.50690  0.30850  0.14330  1.0000 0.1493142514
H   H131      1.0  0.99310  0.80850  0.64330  1.0000 0.1493142514
H   H132      1.0  0.50690  0.69150  0.64330  1.0000 0.1493142514
H   H133      1.0  0.90280  0.26590  0.20860  1.0000 0.1086657023
H   H134      1.0  0.59720  0.23410  0.20860  1.0000 0.1086657023
H   H135      1.0  0.90280  0.73410  0.70860  1.0000 0.1086657023
H   H136      1.0  0.59720  0.76590  0.70860  1.0000 0.1086657023
H   H137      1.0  0.04410  0.06410  0.10120  1.0000 0.1292481541
H   H138      1.0  0.45590  0.43590  0.10120  1.0000 0.1292481541
H   H139      1.0  0.04410  0.93590  0.60120  1.0000 0.1292481541
H   H140      1.0  0.45590  0.56410  0.60120  1.0000 0.1292481541
H   H141      1.0  0.93320  0.92150  0.13560  1.0000 0.1195078722
H   H142      1.0  0.56680  0.57850  0.13560  1.0000 0.1195078722
H   H143      1.0  0.93320  0.07850  0.63560  1.0000 0.1195078722
H   H144      1.0  0.56680  0.42150  0.63560  1.0000 0.1195078722
H   H145      1.0  0.00060  0.79300  0.09380  1.0000 0.140787169
H   H146      1.0  0.49940  0.70700  0.09380  1.0000 0.140787169
H   H147      1.0  0.00060  0.20700  0.59380  1.0000 0.140787169
H   H148      1.0  0.49940  0.29300  0.59380  1.0000 0.140787169
H   H149      1.0  0.09410  0.72250  0.02750  1.0000 0.1086657023
H   H150      1.0  0.40590  0.77750  0.02750  1.0000 0.1086657023
H   H151      1.0  0.09410  0.27750  0.52750  1.0000 0.1086657023
H   H152      1.0  0.40590  0.22250  0.52750  1.0000 0.1086657023
H   H153      1.0  0.20350  0.93190  0.96430  1.0000 0.1086657023
H   H154      1.0  0.29650  0.56810  0.96430  1.0000 0.1086657023
H   H155      1.0  0.20350  0.06810  0.46430  1.0000 0.1086657023
H   H156      1.0  0.29650  0.43190  0.46430  1.0000 0.1086657023
H   H157      1.0  0.11110  0.00810  0.02990  1.0000 0.140787169
H   H158      1.0  0.38890  0.49190  0.02990  1.0000 0.140787169
H   H159      1.0  0.11110  0.99190  0.52990  1.0000 0.140787169
H   H160      1.0  0.38890  0.50810  0.52990  1.0000 0.140787169
C   C1        1.0  0.41570  0.05640  0.13307  1.0000 -0.1320213334
C   C2        1.0  0.08430  0.44360  0.13307  1.0000 -0.1320213334
C   C3        1.0  0.41570  0.94360  0.63307  1.0000 -0.1320213334
C   C4        1.0  0.08430  0.55640  0.63307  1.0000 -0.1320213334
C   C5        1.0  0.54370  0.07010  0.13666  1.0000 -0.1320213334
C   C6        1.0  0.95630  0.42990  0.13666  1.0000 -0.1320213334
C   C7        1.0  0.54370  0.92990  0.63666  1.0000 -0.1320213334
C   C8        1.0  0.95630  0.57010  0.63666  1.0000 -0.1320213334
C   C9        1.0  0.60760  0.99080  0.12440  1.0000 -0.189438402
C   C10       1.0  0.89240  0.50920  0.12440  1.0000 -0.189438402
C   C11       1.0  0.60760  0.00920  0.62440  1.0000 -0.189438402
C   C12       1.0  0.89240  0.49080  0.62440  1.0000 -0.189438402
C   C13       1.0  0.57350  0.95570  0.07020  1.0000 -0.1605303048
C   C14       1.0  0.92650  0.54430  0.07020  1.0000 -0.1605303048
C   C15       1.0  0.57350  0.04430  0.57020  1.0000 -0.1605303048
C   C16       1.0  0.92650  0.45570  0.57020  1.0000 -0.1605303048
C   C17       1.0  0.44670  0.93860  0.06940  1.0000 -0.166598197
C   C18       1.0  0.05330  0.56140  0.06940  1.0000 -0.166598197
C   C19       1.0  0.44670  0.06140  0.56940  1.0000 -0.166598197
C   C20       1.0  0.05330  0.43860  0.56940  1.0000 -0.166598197
C   C21       1.0  0.37870  0.01800  0.08160  1.0000 -0.189438402
C   C22       1.0  0.12130  0.48200  0.08160  1.0000 -0.189438402
C   C23       1.0  0.37870  0.98200  0.58160  1.0000 -0.189438402
C   C24       1.0  0.12130  0.51800  0.58160  1.0000 -0.189438402
C   C25       1.0  0.34770  0.13220  0.14975  1.0000 0.5643528743
C   C26       1.0  0.15230  0.36780  0.14975  1.0000 0.5643528743
C   C27       1.0  0.34770  0.86780  0.64975  1.0000 0.5643528743
C   C28       1.0  0.15230  0.63220  0.64975  1.0000 0.5643528743
C   C29       1.0  0.58160  0.14390  0.10145  1.0000 0.5700431733
C   C30       1.0  0.91840  0.35610  0.10145  1.0000 0.5700431733
C   C31       1.0  0.58160  0.85610  0.60145  1.0000 0.5700431733
C   C32       1.0  0.91840  0.64390  0.60145  1.0000 0.5700431733
C   C33       1.0  0.18640  0.08890  0.25765  1.0000 0.0889014111
C   C34       1.0  0.31360  0.41110  0.25765  1.0000 0.0889014111
C   C35       1.0  0.18640  0.91110  0.75765  1.0000 0.0889014111
C   C36       1.0  0.31360  0.58890  0.75765  1.0000 0.0889014111
C   C37       1.0  0.13500  0.03970  0.29585  1.0000 -0.207896394
C   C38       1.0  0.36500  0.46030  0.29585  1.0000 -0.207896394
C   C39       1.0  0.13500  0.96030  0.79585  1.0000 -0.207896394
C   C40       1.0  0.36500  0.53970  0.79585  1.0000 -0.207896394
C   C41       1.0  0.06520  0.07870  0.33426  1.0000 0.1571166717
C   C42       1.0  0.43480  0.42130  0.33426  1.0000 0.1571166717
C   C43       1.0  0.06520  0.92130  0.83426  1.0000 0.1571166717
C   C44       1.0  0.43480  0.57870  0.83426  1.0000 0.1571166717
C   C45       1.0  0.05290  0.16310  0.33157  1.0000 -0.166598197
C   C46       1.0  0.44710  0.33690  0.33157  1.0000 -0.166598197
C   C47       1.0  0.05290  0.83690  0.83157  1.0000 -0.166598197
C   C48       1.0  0.44710  0.66310  0.83157  1.0000 -0.166598197
C   C49       1.0  0.10720  0.20700  0.29248  1.0000 0.0889014111
C   C50       1.0  0.39280  0.29300  0.29248  1.0000 0.0889014111
C   C51       1.0  0.10720  0.79300  0.79248  1.0000 0.0889014111
C   C52       1.0  0.39280  0.70700  0.79248  1.0000 0.0889014111
C   C53       1.0  0.00590  0.03320  0.37671  1.0000 -0.1320213334
C   C54       1.0  0.49410  0.46680  0.37671  1.0000 -0.1320213334
C   C55       1.0  0.00590  0.96680  0.87671  1.0000 -0.1320213334
C   C56       1.0  0.49410  0.53320  0.87671  1.0000 -0.1320213334
C   C57       1.0  0.01710  0.95310  0.38626  1.0000 -0.1493532316
C   C58       1.0  0.48290  0.54690  0.38626  1.0000 -0.1493532316
C   C59       1.0  0.01710  0.04690  0.88626  1.0000 -0.1493532316
C   C60       1.0  0.48290  0.45310  0.88626  1.0000 -0.1493532316
C   C61       1.0  0.95440  0.90820  0.43055  1.0000 0.1571166717
C   C62       1.0  0.54560  0.59180  0.43055  1.0000 0.1571166717
C   C63       1.0  0.95440  0.09180  0.93055  1.0000 0.1571166717
C   C64       1.0  0.54560  0.40820  0.93055  1.0000 0.1571166717
C   C65       1.0  0.95810  0.82330  0.43225  1.0000 -0.1980548234
C   C66       1.0  0.54190  0.67670  0.43225  1.0000 -0.1980548234
C   C67       1.0  0.95810  0.17670  0.93225  1.0000 -0.1980548234
C   C68       1.0  0.54190  0.32330  0.93225  1.0000 -0.1980548234
C   C69       1.0  0.90150  0.78190  0.47199  1.0000 0.0805222144
C   C70       1.0  0.59850  0.71810  0.47199  1.0000 0.0805222144
C   C71       1.0  0.90150  0.21810  0.97199  1.0000 0.0805222144
C   C72       1.0  0.59850  0.28190  0.97199  1.0000 0.0805222144
C   C73       1.0  0.83760  0.90290  0.50899  1.0000 0.0805222144
C   C74       1.0  0.66240  0.59710  0.50899  1.0000 0.0805222144
C   C75       1.0  0.83760  0.09710  0.00899  1.0000 0.0805222144
C   C76       1.0  0.66240  0.40290  0.00899  1.0000 0.0805222144
C   C77       1.0  0.89300  0.94870  0.46991  1.0000 -0.207896394
C   C78       1.0  0.60700  0.55130  0.46991  1.0000 -0.207896394
C   C79       1.0  0.89300  0.05130  0.96991  1.0000 -0.207896394
C   C80       1.0  0.60700  0.44870  0.96991  1.0000 -0.207896394
C   C81       1.0  0.58430  0.05640  0.36693  1.0000 -0.1320213334
C   C82       1.0  0.91570  0.44360  0.36693  1.0000 -0.1320213334
C   C83       1.0  0.58430  0.94360  0.86693  1.0000 -0.1320213334
C   C84       1.0  0.91570  0.55640  0.86693  1.0000 -0.1320213334
C   C85       1.0  0.45630  0.07010  0.36334  1.0000 -0.1320213334
C   C86       1.0  0.04370  0.42990  0.36334  1.0000 -0.1320213334
C   C87       1.0  0.45630  0.92990  0.86334  1.0000 -0.1320213334
C   C88       1.0  0.04370  0.57010  0.86334  1.0000 -0.1320213334
C   C89       1.0  0.39240  0.99080  0.37560  1.0000 -0.189438402
C   C90       1.0  0.10760  0.50920  0.37560  1.0000 -0.189438402
C   C91       1.0  0.39240  0.00920  0.87560  1.0000 -0.189438402
C   C92       1.0  0.10760  0.49080  0.87560  1.0000 -0.189438402
C   C93       1.0  0.42650  0.95570  0.42980  1.0000 -0.1605303048
C   C94       1.0  0.07350  0.54430  0.42980  1.0000 -0.1605303048
C   C95       1.0  0.42650  0.04430  0.92980  1.0000 -0.1605303048
C   C96       1.0  0.07350  0.45570  0.92980  1.0000 -0.1605303048
C   C97       1.0  0.55330  0.93860  0.43060  1.0000 -0.166598197
C   C98       1.0  0.94670  0.56140  0.43060  1.0000 -0.1605303048
C   C99       1.0  0.55330  0.06140  0.93060  1.0000 -0.1605303048
C   C100      1.0  0.94670  0.43860  0.93060  1.0000 -0.1605303048
C   C101      1.0  0.62130  0.01800  0.41840  1.0000 -0.189438402
C   C102      1.0  0.87870  0.48200  0.41840  1.0000 -0.189438402
C   C103      1.0  0.62130  0.98200  0.91840  1.0000 -0.189438402
C   C104      1.0  0.87870  0.51800  0.91840  1.0000 -0.189438402
C   C105      1.0  0.65230  0.13220  0.35025  1.0000 0.5643528743
C   C106      1.0  0.84770  0.36780  0.35025  1.0000 0.5643528743
C   C107      1.0  0.65230  0.86780  0.85025  1.0000 0.5643528743
C   C108      1.0  0.84770  0.63220  0.85025  1.0000 0.5643528743
C   C109      1.0  0.41840  0.14390  0.39855  1.0000 0.5700431733
C   C110      1.0  0.08160  0.35610  0.39855  1.0000 0.5700431733
C   C111      1.0  0.41840  0.85610  0.89855  1.0000 0.5700431733
C   C112      1.0  0.08160  0.64390  0.89855  1.0000 0.5700431733
C   C113      1.0  0.81360  0.08890  0.24235  1.0000 0.0889014111
C   C114      1.0  0.68640  0.41110  0.24235  1.0000 0.0889014111
C   C115      1.0  0.81360  0.91110  0.74235  1.0000 0.0889014111
C   C116      1.0  0.68640  0.58890  0.74235  1.0000 0.0889014111
C   C117      1.0  0.86500  0.03970  0.20415  1.0000 -0.207896394
C   C118      1.0  0.63500  0.46030  0.20415  1.0000 -0.207896394
C   C119      1.0  0.86500  0.96030  0.70415  1.0000 -0.207896394
C   C120      1.0  0.63500  0.53970  0.70415  1.0000 -0.207896394
C   C121      1.0  0.93480  0.07870  0.16574  1.0000 0.1571166717
C   C122      1.0  0.56520  0.42130  0.16574  1.0000 0.1571166717
C   C123      1.0  0.93480  0.92130  0.66574  1.0000 0.1571166717
C   C124      1.0  0.56520  0.57870  0.66574  1.0000 0.1571166717
C   C125      1.0  0.94710  0.16310  0.16843  1.0000 -0.166598197
C   C126      1.0  0.55290  0.33690  0.16843  1.0000 -0.166598197
C   C127      1.0  0.94710  0.83690  0.66843  1.0000 -0.166598197
C   C128      1.0  0.55290  0.66310  0.66843  1.0000 -0.166598197
C   C129      1.0  0.89280  0.20700  0.20752  1.0000 0.0889014111
C   C130      1.0  0.60720  0.29300  0.20752  1.0000 0.0889014111
C   C131      1.0  0.89280  0.79300  0.70752  1.0000 0.0889014111
C   C132      1.0  0.60720  0.70700  0.70752  1.0000 0.0889014111
C   C133      1.0  0.99410  0.03320  0.12329  1.0000 -0.1320213334
C   C134      1.0  0.50590  0.46680  0.12329  1.0000 -0.1320213334
C   C135      1.0  0.99410  0.96680  0.62329  1.0000 -0.1320213334
C   C136      1.0  0.50590  0.53320  0.62329  1.0000 -0.1320213334
C   C137      1.0  0.98290  0.95310  0.11374  1.0000 -0.1493532316
C   C138      1.0  0.51710  0.54690  0.11374  1.0000 -0.1493532316
C   C139      1.0  0.98290  0.04690  0.61374  1.0000 -0.1493532316
C   C140      1.0  0.51710  0.45310  0.61374  1.0000 -0.1493532316
C   C141      1.0  0.04560  0.90820  0.06945  1.0000 0.1571166717
C   C142      1.0  0.45440  0.59180  0.06945  1.0000 0.1571166717
C   C143      1.0  0.04560  0.09180  0.56945  1.0000 0.1571166717
C   C144      1.0  0.45440  0.40820  0.56945  1.0000 0.1571166717
C   C145      1.0  0.04190  0.82330  0.06775  1.0000 -0.1980548234
C   C146      1.0  0.45810  0.67670  0.06775  1.0000 -0.1980548234
C   C147      1.0  0.04190  0.17670  0.56775  1.0000 -0.1980548234
C   C148      1.0  0.45810  0.32330  0.56775  1.0000 -0.1980548234
C   C149      1.0  0.09850  0.78190  0.02801  1.0000 0.0805222144
C   C150      1.0  0.40150  0.71810  0.02801  1.0000 0.0805222144
C   C151      1.0  0.09850  0.21810  0.52801  1.0000 0.0805222144
C   C152      1.0  0.40150  0.28190  0.52801  1.0000 0.0805222144
C   C153      1.0  0.16240  0.90290  0.99101  1.0000 0.0805222144
C   C154      1.0  0.33760  0.59710  0.99101  1.0000 0.0805222144
C   C155      1.0  0.16240  0.09710  0.49101  1.0000 0.0805222144
C   C156      1.0  0.33760  0.40290  0.49101  1.0000 0.0805222144
C   C157      1.0  0.10700  0.94870  0.03009  1.0000 -0.207896394
C   C158      1.0  0.39300  0.55130  0.03009  1.0000 -0.207896394
C   C159      1.0  0.10700  0.05130  0.53009  1.0000 -0.207896394
C   C160      1.0  0.39300  0.44870  0.53009  1.0000 -0.207896394
N   N1        1.0  0.17350  0.17188  0.25572  1.0000 -0.2284507009
N   N2        1.0  0.32650  0.32812  0.25572  1.0000 -0.2284507009
N   N3        1.0  0.17350  0.82812  0.75572  1.0000 -0.2284507009
N   N4        1.0  0.32650  0.67188  0.75572  1.0000 -0.2284507009
N   N5        1.0  0.84040  0.81927  0.51008  1.0000 -0.2284507009
N   N6        1.0  0.65960  0.68073  0.51008  1.0000 -0.2284507009
N   N7        1.0  0.84040  0.18073  0.01008  1.0000 -0.2284507009
N   N8        1.0  0.65960  0.31927  0.01008  1.0000 -0.2284507009
N   N9        1.0  0.82650  0.17188  0.24428  1.0000 -0.2284507009
N   N10       1.0  0.67350  0.32812  0.24428  1.0000 -0.2284507009
N   N11       1.0  0.82650  0.82812  0.74428  1.0000 -0.2284507009
N   N12       1.0  0.67350  0.67188  0.74428  1.0000 -0.2284507009
N   N13       1.0  0.15960  0.81927  0.98992  1.0000 -0.2284507009
N   N14       1.0  0.34040  0.68073  0.98992  1.0000 -0.2284507009
N   N15       1.0  0.15960  0.18073  0.48992  1.0000 -0.2284507009
N   N16       1.0  0.34040  0.31927  0.48992  1.0000 -0.2284507009
O   O1        1.0  0.39150  0.17750  0.18561  1.0000 -0.5607755265
O   O2        1.0  0.10850  0.32250  0.18561  1.0000 -0.5607755265
O   O3        1.0  0.39150  0.82250  0.68561  1.0000 -0.5607755265
O   O4        1.0  0.10850  0.67750  0.68561  1.0000 -0.5607755265
O   O5        1.0  0.24940  0.14627  0.13374  1.0000 -0.5430590542
O   O6        1.0  0.25060  0.35373  0.13374  1.0000 -0.5430590542
O   O7        1.0  0.24940  0.85373  0.63374  1.0000 -0.5430590542
O   O8        1.0  0.25060  0.64627  0.63374  1.0000 -0.5430590542
O   O9        1.0  0.68550  0.16122  0.10609  1.0000 -0.5607755265
O   O10       1.0  0.81450  0.33878  0.10609  1.0000 -0.5607755265
O   O11       1.0  0.68550  0.83878  0.60609  1.0000 -0.5607755265
O   O12       1.0  0.81450  0.66122  0.60609  1.0000 -0.5607755265
O   O13       1.0  0.51650  0.18321  0.07243  1.0000 -0.5430590542
O   O14       1.0  0.98350  0.31679  0.07243  1.0000 -0.5430590542
O   O15       1.0  0.51650  0.81679  0.57243  1.0000 -0.5430590542
O   O16       1.0  0.98350  0.68321  0.57243  1.0000 -0.5430590542
O   O17       1.0  0.60850  0.17750  0.31439  1.0000 -0.5543322892
O   O18       1.0  0.89150  0.32250  0.31439  1.0000 -0.5543322892
O   O19       1.0  0.60850  0.82250  0.81439  1.0000 -0.5543322892
O   O20       1.0  0.89150  0.67750  0.81439  1.0000 -0.5543322892
O   O21       1.0  0.75060  0.14627  0.36626  1.0000 -0.5430590542
O   O22       1.0  0.74940  0.35373  0.36626  1.0000 -0.5430590542
O   O23       1.0  0.75060  0.85373  0.86626  1.0000 -0.5430590542
O   O24       1.0  0.74940  0.64627  0.86626  1.0000 -0.5430590542
O   O25       1.0  0.31450  0.16122  0.39391  1.0000 -0.5607755265
O   O26       1.0  0.18550  0.33878  0.39391  1.0000 -0.5607755265
O   O27       1.0  0.31450  0.83878  0.89391  1.0000 -0.5607755265
O   O28       1.0  0.18550  0.66122  0.89391  1.0000 -0.5607755265
O   O29       1.0  0.48350  0.18321  0.42757  1.0000 -0.5430590542
O   O30       1.0  0.01650  0.31679  0.42757  1.0000 -0.5430590542
O   O31       1.0  0.48350  0.81679  0.92757  1.0000 -0.5430590542
O   O32       1.0  0.01650  0.68321  0.92757  1.0000 -0.5430590542
