# DDEC6 charges by PACMAN v1.1 (https://github.com/mtap-research/PACMAN-charge/)
data_2024[Zn][srs]3[FSR]1
_chemical_formula_sum              "Zn4 H24 C28 N16 O8"
_cell_length_a       9.69687
_cell_length_b       9.74643
_cell_length_c       11.4334
_cell_angle_alpha    90
_cell_angle_beta     90
_cell_angle_gamma    90

_symmetry_space_group_name_H-M    "P 1"
_symmetry_Int_Tables_number       1

loop_
  _symmetry_equiv_pos_as_xyz
  'x, y, z'

loop_
  _atom_site_type_symbol
  _atom_site_label
  _atom_site_symmetry_multiplicity
  _atom_site_fract_x
  _atom_site_fract_y
  _atom_site_fract_z
  _atom_site_occupancy
  _atom_site_charge
Zn  Zn1       1.0  0.80514  0.75175  0.34296  1.0000 0.7042459402
Zn  Zn2       1.0  0.69486  0.24825  0.84296  1.0000 0.7042459402
Zn  Zn3       1.0  0.30514  0.74825  0.65704  1.0000 0.7042459402
Zn  Zn4       1.0  0.19486  0.25175  0.15704  1.0000 0.7042459402
H   H1        1.0  0.87020  0.12930  0.66390  1.0000 0.1156225506
H   H2        1.0  0.62980  0.87070  0.16390  1.0000 0.1156225506
H   H3        1.0  0.37020  0.37070  0.33610  1.0000 0.1156225506
H   H4        1.0  0.12980  0.62930  0.83610  1.0000 0.1156225506
H   H5        1.0  0.52830  0.65590  0.47330  1.0000 0.1156225506
H   H6        1.0  0.97170  0.34410  0.97330  1.0000 0.1156225506
H   H7        1.0  0.02830  0.84410  0.52670  1.0000 0.1156225506
H   H8        1.0  0.47170  0.15590  0.02670  1.0000 0.1156225506
H   H9        1.0  0.51060  0.99770  0.77630  1.0000 0.1348184351
H   H10       1.0  0.98940  0.00230  0.27630  1.0000 0.1348184351
H   H11       1.0  0.01060  0.50230  0.22370  1.0000 0.1348184351
H   H12       1.0  0.48940  0.49770  0.72370  1.0000 0.1348184351
H   H13       1.0  0.66870  0.47000  0.07200  1.0000 0.1569890681
H   H14       1.0  0.83130  0.53000  0.57200  1.0000 0.1569890681
H   H15       1.0  0.16870  0.03000  0.92800  1.0000 0.1569890681
H   H16       1.0  0.33130  0.97000  0.42800  1.0000 0.1569890681
H   H17       1.0  0.51300  0.48310  0.10720  1.0000 0.1569890681
H   H18       1.0  0.98700  0.51690  0.60720  1.0000 0.1569890681
H   H19       1.0  0.01300  0.01690  0.89280  1.0000 0.1569890681
H   H20       1.0  0.48700  0.98310  0.39280  1.0000 0.1569890681
H   H21       1.0  0.60970  0.38150  0.17490  1.0000 0.1676605646
H   H22       1.0  0.89030  0.61850  0.67490  1.0000 0.1676605646
H   H23       1.0  0.10970  0.11850  0.82510  1.0000 0.1676605646
H   H24       1.0  0.39030  0.88150  0.32510  1.0000 0.1676605646
C   C1        1.0  0.79800  0.06730  0.65550  1.0000 0.2155277583
C   C2        1.0  0.70200  0.93270  0.15550  1.0000 0.2155277583
C   C3        1.0  0.29800  0.43270  0.34450  1.0000 0.2155277583
C   C4        1.0  0.20200  0.56730  0.84450  1.0000 0.2155277583
C   C5        1.0  0.58860  0.89180  0.63980  1.0000 0.0662983511
C   C6        1.0  0.91140  0.10820  0.13980  1.0000 0.0662983511
C   C7        1.0  0.08860  0.60820  0.36020  1.0000 0.0662983511
C   C8        1.0  0.41140  0.39180  0.86020  1.0000 0.0662983511
C   C9        1.0  0.70240  0.89050  0.56400  1.0000 0.2834769491
C   C10       1.0  0.79760  0.10950  0.06400  1.0000 0.2834769491
C   C11       1.0  0.20240  0.60950  0.43600  1.0000 0.2834769491
C   C12       1.0  0.29760  0.39050  0.93600  1.0000 0.2834769491
C   C13       1.0  0.56530  0.72970  0.51410  1.0000 0.2109813545
C   C14       1.0  0.93470  0.27030  0.01410  1.0000 0.2109813545
C   C15       1.0  0.06530  0.77030  0.48590  1.0000 0.2109813545
C   C16       1.0  0.43470  0.22970  0.98590  1.0000 0.2109813545
C   C17       1.0  0.58490  0.99140  0.72510  1.0000 0.0344227928
C   C18       1.0  0.91510  0.00860  0.22510  1.0000 0.0344227928
C   C19       1.0  0.08490  0.50860  0.27490  1.0000 0.0344227928
C   C20       1.0  0.41510  0.49140  0.77490  1.0000 0.0344227928
C   C21       1.0  0.60490  0.46870  0.13610  1.0000 -0.5726461705
C   C22       1.0  0.89510  0.53130  0.63610  1.0000 -0.5726461705
C   C23       1.0  0.10490  0.03130  0.86390  1.0000 -0.5726461705
C   C24       1.0  0.39510  0.96870  0.36390  1.0000 -0.5726461705
C   C25       1.0  0.64110  0.58080  0.22110  1.0000 0.6656936709
C   C26       1.0  0.85890  0.41920  0.72110  1.0000 0.6656936709
C   C27       1.0  0.14110  0.91920  0.77890  1.0000 0.6656936709
C   C28       1.0  0.35890  0.08080  0.27890  1.0000 0.6656936709
N   N1        1.0  0.68680  0.78750  0.48450  1.0000 -0.3732300099
N   N2        1.0  0.81320  0.21250  0.98450  1.0000 -0.3732300099
N   N3        1.0  0.18680  0.71250  0.51550  1.0000 -0.3732300099
N   N4        1.0  0.31320  0.28750  0.01550  1.0000 -0.3732300099
N   N5        1.0  0.69160  0.07940  0.73260  1.0000 -0.2758147564
N   N6        1.0  0.80840  0.92060  0.23260  1.0000 -0.2758147564
N   N7        1.0  0.19160  0.42060  0.26740  1.0000 -0.2758147564
N   N8        1.0  0.30840  0.57940  0.76740  1.0000 -0.2758147564
N   N9        1.0  0.50180  0.78560  0.60580  1.0000 -0.3303154405
N   N10       1.0  0.99820  0.21440  0.10580  1.0000 -0.3303154405
N   N11       1.0  0.00180  0.71440  0.39420  1.0000 -0.3303154405
N   N12       1.0  0.49820  0.28560  0.89420  1.0000 -0.3303154405
N   N13       1.0  0.80910  0.97730  0.57070  1.0000 -0.3303154405
N   N14       1.0  0.69090  0.02270  0.07070  1.0000 -0.3303154405
N   N15       1.0  0.30910  0.52270  0.42930  1.0000 -0.3303154405
N   N16       1.0  0.19090  0.47730  0.92930  1.0000 -0.3303154405
O   O1        1.0  0.76260  0.58130  0.26190  1.0000 -0.5623880323
O   O2        1.0  0.73740  0.41870  0.76190  1.0000 -0.5623880323
O   O3        1.0  0.26260  0.91870  0.73810  1.0000 -0.5623880323
O   O4        1.0  0.23740  0.08130  0.23810  1.0000 -0.5623880323
O   O5        1.0  0.55450  0.66840  0.24670  1.0000 -0.5836392042
O   O6        1.0  0.94550  0.33160  0.74670  1.0000 -0.5836392042
O   O7        1.0  0.05450  0.83160  0.75330  1.0000 -0.5836392042
O   O8        1.0  0.44550  0.16840  0.25330  1.0000 -0.5836392042
