# DDEC6 charges by PACMAN v1.1 (https://github.com/mtap-research/PACMAN-charge/)
data_c5dt03710g2_9_FSR_pacman
_symmetry_space_group_name_H-M   'P 1'
_cell_length_a   14.93670000
_cell_length_b   14.93670000
_cell_length_c   19.17850000
_cell_angle_alpha   90.00000000
_cell_angle_beta   90.00000000
_cell_angle_gamma   90.00000000
_symmetry_Int_Tables_number   1
_chemical_formula_structural   ZnH10C11NO4
_chemical_formula_sum   'Zn8 H80 C88 N8 O32'
_cell_volume   4278.81937464
_cell_formula_units_Z   8
loop_
 _symmetry_equiv_pos_site_id
 _symmetry_equiv_pos_as_xyz
  1  'x, y, z'
loop_
 _atom_site_type_symbol
 _atom_site_label
 _atom_site_symmetry_multiplicity
 _atom_site_fract_x
 _atom_site_fract_y
 _atom_site_fract_z
 _atom_site_occupancy
 _atom_site_charge
Zn  Zn1  1  0.50000000  0.00000000  0.33713000  1.0 0.6685000772
Zn  Zn2  1  0.00000000  0.50000000  0.16287000  1.0 0.6685000772
Zn  Zn3  1  0.00000000  0.50000000  0.66287000  1.0 0.6685000772
Zn  Zn4  1  0.50000000  0.00000000  0.83713000  1.0 0.6685000772
Zn  Zn5  1  0.50000000  0.00000000  0.18405000  1.0 0.6645766526
Zn  Zn6  1  0.00000000  0.50000000  0.31595000  1.0 0.6685000772
Zn  Zn7  1  0.00000000  0.50000000  0.81595000  1.0 0.6685000772
Zn  Zn8  1  0.50000000  0.00000000  0.68405000  1.0 0.6685000772
H  H1  1  0.24900000  0.84800000  0.35970000  1.0 0.1325426727
H  H2  1  0.75100000  0.15200000  0.35970000  1.0 0.1325426727
H  H3  1  0.65200000  0.74900000  0.35970000  1.0 0.1325426727
H  H4  1  0.34800000  0.25100000  0.35970000  1.0 0.1325426727
H  H5  1  0.25100000  0.34800000  0.14030000  1.0 0.1325426727
H  H6  1  0.74900000  0.65200000  0.14030000  1.0 0.1325426727
H  H7  1  0.84800000  0.24900000  0.14030000  1.0 0.1325426727
H  H8  1  0.15200000  0.75100000  0.14030000  1.0 0.1325426727
H  H9  1  0.25100000  0.65200000  0.64030000  1.0 0.1325426727
H  H10  1  0.74900000  0.34800000  0.64030000  1.0 0.1325426727
H  H11  1  0.84800000  0.75100000  0.64030000  1.0 0.1325426727
H  H12  1  0.15200000  0.24900000  0.64030000  1.0 0.1325426727
H  H13  1  0.24900000  0.15200000  0.85970000  1.0 0.1325426727
H  H14  1  0.75100000  0.84800000  0.85970000  1.0 0.1325426727
H  H15  1  0.65200000  0.25100000  0.85970000  1.0 0.1325426727
H  H16  1  0.34800000  0.74900000  0.85970000  1.0 0.1325426727
H  H17  1  0.26060000  0.86240000  0.14880000  1.0 0.1325426727
H  H18  1  0.73940000  0.13760000  0.14880000  1.0 0.1325426727
H  H19  1  0.63760000  0.76060000  0.14880000  1.0 0.1325426727
H  H20  1  0.36240000  0.23940000  0.14880000  1.0 0.1325426727
H  H21  1  0.23940000  0.36240000  0.35120000  1.0 0.1325426727
H  H22  1  0.76060000  0.63760000  0.35120000  1.0 0.1325426727
H  H23  1  0.86240000  0.26060000  0.35120000  1.0 0.1325426727
H  H24  1  0.13760000  0.73940000  0.35120000  1.0 0.1325426727
H  H25  1  0.23940000  0.63760000  0.85120000  1.0 0.1325426727
H  H26  1  0.76060000  0.36240000  0.85120000  1.0 0.1325426727
H  H27  1  0.86240000  0.73940000  0.85120000  1.0 0.1325426727
H  H28  1  0.13760000  0.26060000  0.85120000  1.0 0.1325426727
H  H29  1  0.26060000  0.13760000  0.64880000  1.0 0.1325426727
H  H30  1  0.73940000  0.86240000  0.64880000  1.0 0.1325426727
H  H31  1  0.63760000  0.23940000  0.64880000  1.0 0.1325426727
H  H32  1  0.36240000  0.76060000  0.64880000  1.0 0.1325426727
H  H33  1  0.47080000  0.86860000  0.45320000  0.375 0.0900484524
H  H34  1  0.52920000  0.13140000  0.45320000  0.375 0.0900484524
H  H35  1  0.63140000  0.97080000  0.45320000  0.375 0.0900484524
H  H36  1  0.36860000  0.02920000  0.45320000  0.375 0.0900484524
H  H37  1  0.02920000  0.36860000  0.04680000  0.375 0.0900484524
H  H38  1  0.97080000  0.63140000  0.04680000  0.375 0.0900484524
H  H39  1  0.86860000  0.47080000  0.04680000  0.375 0.0900484524
H  H40  1  0.13140000  0.52920000  0.04680000  0.375 0.0900484524
H  H41  1  0.02920000  0.63140000  0.54680000  0.375 0.0900484524
H  H42  1  0.97080000  0.36860000  0.54680000  0.375 0.0900484524
H  H43  1  0.86860000  0.52920000  0.54680000  0.375 0.0900484524
H  H44  1  0.13140000  0.47080000  0.54680000  0.375 0.0900484524
H  H45  1  0.47080000  0.13140000  0.95320000  0.375 0.0900484524
H  H46  1  0.52920000  0.86860000  0.95320000  0.375 0.0900484524
H  H47  1  0.63140000  0.02920000  0.95320000  0.375 0.0900484524
H  H48  1  0.36860000  0.97080000  0.95320000  0.375 0.0900484524
H  H49  1  0.38400000  0.93160000  0.45300000  0.375 0.0900484524
H  H50  1  0.61600000  0.06840000  0.45300000  0.375 0.0900484524
H  H51  1  0.56840000  0.88400000  0.45300000  0.375 0.0900484524
H  H52  1  0.43160000  0.11600000  0.45300000  0.375 0.0900484524
H  H53  1  0.11600000  0.43160000  0.04700000  0.375 0.0900484524
H  H54  1  0.88400000  0.56840000  0.04700000  0.375 0.0900484524
H  H55  1  0.93160000  0.38400000  0.04700000  0.375 0.0900484524
H  H56  1  0.06840000  0.61600000  0.04700000  0.375 0.0900484524
H  H57  1  0.11600000  0.56840000  0.54700000  0.375 0.0900484524
H  H58  1  0.88400000  0.43160000  0.54700000  0.375 0.0900484524
H  H59  1  0.93160000  0.61600000  0.54700000  0.375 0.0900484524
H  H60  1  0.06840000  0.38400000  0.54700000  0.375 0.0900484524
H  H61  1  0.38400000  0.06840000  0.95300000  0.375 0.0900484524
H  H62  1  0.61600000  0.93160000  0.95300000  0.375 0.0900484524
H  H63  1  0.56840000  0.11600000  0.95300000  0.375 0.0900484524
H  H64  1  0.43160000  0.88400000  0.95300000  0.375 0.0900484524
H  H65  1  0.39020000  0.92530000  0.45530000  0.375 0.0900484524
H  H66  1  0.60980000  0.07470000  0.45530000  0.375 0.0900484524
H  H67  1  0.57470000  0.89020000  0.45530000  0.375 0.0900484524
H  H68  1  0.42530000  0.10980000  0.45530000  0.375 0.0900484524
H  H69  1  0.10980000  0.42530000  0.04470000  0.375 0.0900484524
H  H70  1  0.89020000  0.57470000  0.04470000  0.375 0.0900484524
H  H71  1  0.92530000  0.39020000  0.04470000  0.375 0.0900484524
H  H72  1  0.07470000  0.60980000  0.04470000  0.375 0.0900484524
H  H73  1  0.10980000  0.57470000  0.54470000  0.375 0.0900484524
H  H74  1  0.89020000  0.42530000  0.54470000  0.375 0.0900484524
H  H75  1  0.92530000  0.60980000  0.54470000  0.375 0.0900484524
H  H76  1  0.07470000  0.39020000  0.54470000  0.375 0.0900484524
H  H77  1  0.39020000  0.07470000  0.95530000  0.375 0.0900484524
H  H78  1  0.60980000  0.92530000  0.95530000  0.375 0.0900484524
H  H79  1  0.57470000  0.10980000  0.95530000  0.375 0.0900484524
H  H80  1  0.42530000  0.89020000  0.95530000  0.375 0.0900484524
H  H81  1  0.37040000  0.03060000  0.45270000  0.375 0.0900484524
H  H82  1  0.62960000  0.96940000  0.45270000  0.375 0.0900484524
H  H83  1  0.46940000  0.87040000  0.45270000  0.375 0.0900484524
H  H84  1  0.53060000  0.12960000  0.45270000  0.375 0.0900484524
H  H85  1  0.12960000  0.53060000  0.04730000  0.375 0.0900484524
H  H86  1  0.87040000  0.46940000  0.04730000  0.375 0.0900484524
H  H87  1  0.03060000  0.37040000  0.04730000  0.375 0.0900484524
H  H88  1  0.96940000  0.62960000  0.04730000  0.375 0.0900484524
H  H89  1  0.12960000  0.46940000  0.54730000  0.375 0.0900484524
H  H90  1  0.87040000  0.53060000  0.54730000  0.375 0.0900484524
H  H91  1  0.03060000  0.62960000  0.54730000  0.375 0.0900484524
H  H92  1  0.96940000  0.37040000  0.54730000  0.375 0.0900484524
H  H93  1  0.37040000  0.96940000  0.95270000  0.375 0.0900484524
H  H94  1  0.62960000  0.03060000  0.95270000  0.375 0.0900484524
H  H95  1  0.46940000  0.12960000  0.95270000  0.375 0.0900484524
H  H96  1  0.53060000  0.87040000  0.95270000  0.375 0.0900484524
H  H97  1  0.36880000  0.97020000  0.06720000  0.375 0.0900484524
H  H98  1  0.63120000  0.02980000  0.06720000  0.375 0.0900484524
H  H99  1  0.52980000  0.86880000  0.06720000  0.375 0.0900484524
H  H100  1  0.47020000  0.13120000  0.06720000  0.375 0.0900484524
H  H101  1  0.13120000  0.47020000  0.43280000  0.375 0.0900484524
H  H102  1  0.86880000  0.52980000  0.43280000  0.375 0.0900484524
H  H103  1  0.97020000  0.36880000  0.43280000  0.375 0.0900484524
H  H104  1  0.02980000  0.63120000  0.43280000  0.375 0.0900484524
H  H105  1  0.13120000  0.52980000  0.93280000  0.375 0.0900484524
H  H106  1  0.86880000  0.47020000  0.93280000  0.375 0.0900484524
H  H107  1  0.97020000  0.63120000  0.93280000  0.375 0.0900484524
H  H108  1  0.02980000  0.36880000  0.93280000  0.375 0.0900484524
H  H109  1  0.36880000  0.02980000  0.56720000  0.375 0.0900484524
H  H110  1  0.63120000  0.97020000  0.56720000  0.375 0.0900484524
H  H111  1  0.52980000  0.13120000  0.56720000  0.375 0.0900484524
H  H112  1  0.47020000  0.86880000  0.56720000  0.375 0.0900484524
H  H113  1  0.43220000  0.88380000  0.06700000  0.375 0.0900484524
H  H114  1  0.56780000  0.11620000  0.06700000  0.375 0.0900484524
H  H115  1  0.61620000  0.93220000  0.06700000  0.375 0.0900484524
H  H116  1  0.38380000  0.06780000  0.06700000  0.375 0.0900484524
H  H117  1  0.06780000  0.38380000  0.43300000  0.375 0.0900484524
H  H118  1  0.93220000  0.61620000  0.43300000  0.375 0.0900484524
H  H119  1  0.88380000  0.43220000  0.43300000  0.375 0.0900484524
H  H120  1  0.11620000  0.56780000  0.43300000  0.375 0.0900484524
H  H121  1  0.06780000  0.61620000  0.93300000  0.375 0.0900484524
H  H122  1  0.93220000  0.38380000  0.93300000  0.375 0.0900484524
H  H123  1  0.88380000  0.56780000  0.93300000  0.375 0.0900484524
H  H124  1  0.11620000  0.43220000  0.93300000  0.375 0.0900484524
H  H125  1  0.43220000  0.11620000  0.56700000  0.375 0.0900484524
H  H126  1  0.56780000  0.88380000  0.56700000  0.375 0.0900484524
H  H127  1  0.61620000  0.06780000  0.56700000  0.375 0.0900484524
H  H128  1  0.38380000  0.93220000  0.56700000  0.375 0.0900484524
H  H129  1  0.38580000  0.06870000  0.06840000  0.375 0.0900484524
H  H130  1  0.61420000  0.93130000  0.06840000  0.375 0.0900484524
H  H131  1  0.43130000  0.88580000  0.06840000  0.375 0.0900484524
H  H132  1  0.56870000  0.11420000  0.06840000  0.375 0.0900484524
H  H133  1  0.11420000  0.56870000  0.43160000  0.375 0.0900484524
H  H134  1  0.88580000  0.43130000  0.43160000  0.375 0.0900484524
H  H135  1  0.06870000  0.38580000  0.43160000  0.375 0.0900484524
H  H136  1  0.93130000  0.61420000  0.43160000  0.375 0.0900484524
H  H137  1  0.11420000  0.43130000  0.93160000  0.375 0.0900484524
H  H138  1  0.88580000  0.56870000  0.93160000  0.375 0.0900484524
H  H139  1  0.06870000  0.61420000  0.93160000  0.375 0.0900484524
H  H140  1  0.93130000  0.38580000  0.93160000  0.375 0.0900484524
H  H141  1  0.38580000  0.93130000  0.56840000  0.375 0.0900484524
H  H142  1  0.61420000  0.06870000  0.56840000  0.375 0.0900484524
H  H143  1  0.43130000  0.11420000  0.56840000  0.375 0.0900484524
H  H144  1  0.56870000  0.88580000  0.56840000  0.375 0.0900484524
H  H145  1  0.37240000  0.96240000  0.06580000  0.375 0.0900484524
H  H146  1  0.62760000  0.03760000  0.06580000  0.375 0.0900484524
H  H147  1  0.53760000  0.87240000  0.06580000  0.375 0.0900484524
H  H148  1  0.46240000  0.12760000  0.06580000  0.375 0.0900484524
H  H149  1  0.12760000  0.46240000  0.43420000  0.375 0.0900484524
H  H150  1  0.87240000  0.53760000  0.43420000  0.375 0.0900484524
H  H151  1  0.96240000  0.37240000  0.43420000  0.375 0.0900484524
H  H152  1  0.03760000  0.62760000  0.43420000  0.375 0.0900484524
H  H153  1  0.12760000  0.53760000  0.93420000  0.375 0.0900484524
H  H154  1  0.87240000  0.46240000  0.93420000  0.375 0.0900484524
H  H155  1  0.96240000  0.62760000  0.93420000  0.375 0.0900484524
H  H156  1  0.03760000  0.37240000  0.93420000  0.375 0.0900484524
H  H157  1  0.37240000  0.03760000  0.56580000  0.375 0.0900484524
H  H158  1  0.62760000  0.96240000  0.56580000  0.375 0.0900484524
H  H159  1  0.53760000  0.12760000  0.56580000  0.375 0.0900484524
H  H160  1  0.46240000  0.87240000  0.56580000  0.375 0.0900484524
C  C1  1  0.34639000  0.92571000  0.25946000  1.0 0.4443278673
C  C2  1  0.65361000  0.07429000  0.25946000  1.0 0.4443278673
C  C3  1  0.57429000  0.84639000  0.25946000  1.0 0.4443278673
C  C4  1  0.42571000  0.15361000  0.25946000  1.0 0.4443278673
C  C5  1  0.15361000  0.42571000  0.24054000  1.0 0.4443278673
C  C6  1  0.84639000  0.57429000  0.24054000  1.0 0.4443278673
C  C7  1  0.92571000  0.34639000  0.24054000  1.0 0.4443278673
C  C8  1  0.07429000  0.65361000  0.24054000  1.0 0.4443278673
C  C9  1  0.15361000  0.57429000  0.74054000  1.0 0.4463341265
C  C10  1  0.84639000  0.42571000  0.74054000  1.0 0.4463341265
C  C11  1  0.92571000  0.65361000  0.74054000  1.0 0.4463341265
C  C12  1  0.07429000  0.34639000  0.74054000  1.0 0.4463341265
C  C13  1  0.34639000  0.07429000  0.75946000  1.0 0.4463341265
C  C14  1  0.65361000  0.92571000  0.75946000  1.0 0.4463341265
C  C15  1  0.57429000  0.15361000  0.75946000  1.0 0.4463341265
C  C16  1  0.42571000  0.84639000  0.75946000  1.0 0.4443278673
C  C17  1  0.26788000  0.86347000  0.25498000  1.0 0.0079170251
C  C18  1  0.73212000  0.13653000  0.25498000  1.0 0.0079170251
C  C19  1  0.63653000  0.76788000  0.25498000  1.0 0.0079170251
C  C20  1  0.36347000  0.23212000  0.25498000  1.0 0.0079170251
C  C21  1  0.23212000  0.36347000  0.24502000  1.0 0.0079170251
C  C22  1  0.76788000  0.63653000  0.24502000  1.0 0.0079170251
C  C23  1  0.86347000  0.26788000  0.24502000  1.0 0.0079170251
C  C24  1  0.13653000  0.73212000  0.24502000  1.0 0.0079170251
C  C25  1  0.23212000  0.63653000  0.74502000  1.0 0.0079170251
C  C26  1  0.76788000  0.36347000  0.74502000  1.0 0.0079170251
C  C27  1  0.86347000  0.73212000  0.74502000  1.0 0.0079170251
C  C28  1  0.13653000  0.26788000  0.74502000  1.0 0.0079170251
C  C29  1  0.26788000  0.13653000  0.75498000  1.0 0.0079170251
C  C30  1  0.73212000  0.86347000  0.75498000  1.0 0.0079170251
C  C31  1  0.63653000  0.23212000  0.75498000  1.0 0.0079170251
C  C32  1  0.36347000  0.76788000  0.75498000  1.0 0.0079170251
C  C33  1  0.22980000  0.82780000  0.31518000  1.0 -0.1309922443
C  C34  1  0.77020000  0.17220000  0.31518000  1.0 -0.1309922443
C  C35  1  0.67220000  0.72980000  0.31518000  1.0 -0.1309922443
C  C36  1  0.32780000  0.27020000  0.31518000  1.0 -0.1309922443
C  C37  1  0.27020000  0.32780000  0.18482000  1.0 -0.1309922443
C  C38  1  0.72980000  0.67220000  0.18482000  1.0 -0.1309922443
C  C39  1  0.82780000  0.22980000  0.18482000  1.0 -0.1309922443
C  C40  1  0.17220000  0.77020000  0.18482000  1.0 -0.1309922443
C  C41  1  0.27020000  0.67220000  0.68482000  1.0 -0.1309922443
C  C42  1  0.72980000  0.32780000  0.68482000  1.0 -0.1309922443
C  C43  1  0.82780000  0.77020000  0.68482000  1.0 -0.1309922443
C  C44  1  0.17220000  0.22980000  0.68482000  1.0 -0.1309922443
C  C45  1  0.22980000  0.17220000  0.81518000  1.0 -0.1309922443
C  C46  1  0.77020000  0.82780000  0.81518000  1.0 -0.1309922443
C  C47  1  0.67220000  0.27020000  0.81518000  1.0 -0.1309922443
C  C48  1  0.32780000  0.72980000  0.81518000  1.0 -0.1309922443
C  C49  1  0.23700000  0.83590000  0.18990000  1.0 -0.1309922443
C  C50  1  0.76300000  0.16410000  0.18990000  1.0 -0.1309922443
C  C51  1  0.66410000  0.73700000  0.18990000  1.0 -0.1309922443
C  C52  1  0.33590000  0.26300000  0.18990000  1.0 -0.1309922443
C  C53  1  0.26300000  0.33590000  0.31010000  1.0 -0.1309922443
C  C54  1  0.73700000  0.66410000  0.31010000  1.0 -0.1309922443
C  C55  1  0.83590000  0.23700000  0.31010000  1.0 -0.1309922443
C  C56  1  0.16410000  0.76300000  0.31010000  1.0 -0.1309922443
C  C57  1  0.26300000  0.66410000  0.81010000  1.0 -0.1309922443
C  C58  1  0.73700000  0.33590000  0.81010000  1.0 -0.1309922443
C  C59  1  0.83590000  0.76300000  0.81010000  1.0 -0.1309922443
C  C60  1  0.16410000  0.23700000  0.81010000  1.0 -0.1309922443
C  C61  1  0.23700000  0.16410000  0.68990000  1.0 -0.1309922443
C  C62  1  0.76300000  0.83590000  0.68990000  1.0 -0.1309922443
C  C63  1  0.66410000  0.26300000  0.68990000  1.0 -0.1309922443
C  C64  1  0.33590000  0.73700000  0.68990000  1.0 -0.1309922443
C  C65  1  0.44600000  0.92610000  0.47040000  0.375 -0.0764183671
C  C66  1  0.55400000  0.07390000  0.47040000  0.375 -0.0764183671
C  C67  1  0.57390000  0.94600000  0.47040000  0.375 -0.0764183671
C  C68  1  0.42610000  0.05400000  0.47040000  0.375 -0.0764183671
C  C69  1  0.05400000  0.42610000  0.02960000  0.375 -0.0764183671
C  C70  1  0.94600000  0.57390000  0.02960000  0.375 -0.0764183671
C  C71  1  0.92610000  0.44600000  0.02960000  0.375 -0.0764183671
C  C72  1  0.07390000  0.55400000  0.02960000  0.375 -0.0764183671
C  C73  1  0.05400000  0.57390000  0.52960000  0.375 -0.0764183671
C  C74  1  0.94600000  0.42610000  0.52960000  0.375 -0.0764183671
C  C75  1  0.92610000  0.55400000  0.52960000  0.375 -0.0764183671
C  C76  1  0.07390000  0.44600000  0.52960000  0.375 -0.0764183671
C  C77  1  0.44600000  0.07390000  0.97040000  0.375 -0.0764183671
C  C78  1  0.55400000  0.92610000  0.97040000  0.375 -0.0764183671
C  C79  1  0.57390000  0.05400000  0.97040000  0.375 -0.0764183671
C  C80  1  0.42610000  0.94600000  0.97040000  0.375 -0.0764183671
C  C81  1  0.41180000  0.98500000  0.47110000  0.375 -0.0740309038
C  C82  1  0.58820000  0.01500000  0.47110000  0.375 -0.0740309038
C  C83  1  0.51500000  0.91180000  0.47110000  0.375 -0.0740309038
C  C84  1  0.48500000  0.08820000  0.47110000  0.375 -0.0740309038
C  C85  1  0.08820000  0.48500000  0.02890000  0.375 -0.0740309038
C  C86  1  0.91180000  0.51500000  0.02890000  0.375 -0.0740309038
C  C87  1  0.98500000  0.41180000  0.02890000  0.375 -0.0740309038
C  C88  1  0.01500000  0.58820000  0.02890000  0.375 -0.0740309038
C  C89  1  0.08820000  0.51500000  0.52890000  0.375 -0.0740309038
C  C90  1  0.91180000  0.48500000  0.52890000  0.375 -0.0740309038
C  C91  1  0.98500000  0.58820000  0.52890000  0.375 -0.0740309038
C  C92  1  0.01500000  0.41180000  0.52890000  0.375 -0.0740309038
C  C93  1  0.41180000  0.01500000  0.97110000  0.375 -0.0740309038
C  C94  1  0.58820000  0.98500000  0.97110000  0.375 -0.0740309038
C  C95  1  0.51500000  0.08820000  0.97110000  0.375 -0.0740309038
C  C96  1  0.48500000  0.91180000  0.97110000  0.375 -0.0740309038
C  C97  1  0.42630000  0.94600000  0.04990000  0.375 -0.0740309038
C  C98  1  0.57370000  0.05400000  0.04990000  0.375 -0.0740309038
C  C99  1  0.55400000  0.92630000  0.04990000  0.375 -0.0740309038
C  C100  1  0.44600000  0.07370000  0.04990000  0.375 -0.0740309038
C  C101  1  0.07370000  0.44600000  0.45010000  0.375 -0.0740309038
C  C102  1  0.92630000  0.55400000  0.45010000  0.375 -0.0740309038
C  C103  1  0.94600000  0.42630000  0.45010000  0.375 -0.0740309038
C  C104  1  0.05400000  0.57370000  0.45010000  0.375 -0.0740309038
C  C105  1  0.07370000  0.55400000  0.95010000  0.375 -0.0740309038
C  C106  1  0.92630000  0.44600000  0.95010000  0.375 -0.0740309038
C  C107  1  0.94600000  0.57370000  0.95010000  0.375 -0.0740309038
C  C108  1  0.05400000  0.42630000  0.95010000  0.375 -0.0740309038
C  C109  1  0.42630000  0.05400000  0.54990000  0.375 -0.0740309038
C  C110  1  0.57370000  0.94600000  0.54990000  0.375 -0.0740309038
C  C111  1  0.55400000  0.07370000  0.54990000  0.375 -0.0740309038
C  C112  1  0.44600000  0.92630000  0.54990000  0.375 -0.0740309038
C  C113  1  0.41110000  0.01200000  0.05000000  0.375 -0.0740309038
C  C114  1  0.58890000  0.98800000  0.05000000  0.375 -0.0740309038
C  C115  1  0.48800000  0.91110000  0.05000000  0.375 -0.0740309038
C  C116  1  0.51200000  0.08890000  0.05000000  0.375 -0.0740309038
C  C117  1  0.08890000  0.51200000  0.45000000  0.375 -0.0740309038
C  C118  1  0.91110000  0.48800000  0.45000000  0.375 -0.0740309038
C  C119  1  0.01200000  0.41110000  0.45000000  0.375 -0.0740309038
C  C120  1  0.98800000  0.58890000  0.45000000  0.375 -0.0740309038
C  C121  1  0.08890000  0.48800000  0.95000000  0.375 -0.0740309038
C  C122  1  0.91110000  0.51200000  0.95000000  0.375 -0.0740309038
C  C123  1  0.01200000  0.58890000  0.95000000  0.375 -0.0740309038
C  C124  1  0.98800000  0.41110000  0.95000000  0.375 -0.0740309038
C  C125  1  0.41110000  0.98800000  0.55000000  0.375 -0.0740309038
C  C126  1  0.58890000  0.01200000  0.55000000  0.375 -0.0740309038
C  C127  1  0.48800000  0.08890000  0.55000000  0.375 -0.0740309038
C  C128  1  0.51200000  0.91110000  0.55000000  0.375 -0.0740309038
N  N1  1  0.50000000  0.00000000  0.44360000  1.0 -0.1309922443
N  N2  1  0.00000000  0.50000000  0.05640000  1.0 -0.1309922443
N  N3  1  0.00000000  0.50000000  0.55640000  1.0 -0.1309922443
N  N4  1  0.50000000  0.00000000  0.94360000  1.0 -0.1309922443
N  N5  1  0.50000000  0.00000000  0.07740000  1.0 -0.1309922443
N  N6  1  0.00000000  0.50000000  0.42260000  1.0 -0.1309922443
N  N7  1  0.00000000  0.50000000  0.92260000  1.0 -0.1309922443
N  N8  1  0.50000000  0.00000000  0.57740000  1.0 -0.1309922443
O  O1  1  0.38351000  0.93320000  0.31823000  1.0 -0.5733043653
O  O2  1  0.61649000  0.06680000  0.31823000  1.0 -0.5733043653
O  O3  1  0.56680000  0.88351000  0.31823000  1.0 -0.5733043653
O  O4  1  0.43320000  0.11649000  0.31823000  1.0 -0.5733043653
O  O5  1  0.11649000  0.43320000  0.18177000  1.0 -0.5733043653
O  O6  1  0.88351000  0.56680000  0.18177000  1.0 -0.5733043653
O  O7  1  0.93320000  0.38351000  0.18177000  1.0 -0.5733043653
O  O8  1  0.06680000  0.61649000  0.18177000  1.0 -0.5733043653
O  O9  1  0.11649000  0.56680000  0.68177000  1.0 -0.5733043653
O  O10  1  0.88351000  0.43320000  0.68177000  1.0 -0.5733043653
O  O11  1  0.93320000  0.61649000  0.68177000  1.0 -0.5733043653
O  O12  1  0.06680000  0.38351000  0.68177000  1.0 -0.5733043653
O  O13  1  0.38351000  0.06680000  0.81823000  1.0 -0.5733043653
O  O14  1  0.61649000  0.93320000  0.81823000  1.0 -0.5733043653
O  O15  1  0.56680000  0.11649000  0.81823000  1.0 -0.5733043653
O  O16  1  0.43320000  0.88351000  0.81823000  1.0 -0.5733043653
O  O17  1  0.37093000  0.96415000  0.20425000  1.0 -0.5733043653
O  O18  1  0.62907000  0.03585000  0.20425000  1.0 -0.5733043653
O  O19  1  0.53585000  0.87093000  0.20425000  1.0 -0.5733043653
O  O20  1  0.46415000  0.12907000  0.20425000  1.0 -0.5733043653
O  O21  1  0.12907000  0.46415000  0.29575000  1.0 -0.5733043653
O  O22  1  0.87093000  0.53585000  0.29575000  1.0 -0.5733043653
O  O23  1  0.96415000  0.37093000  0.29575000  1.0 -0.5733043653
O  O24  1  0.03585000  0.62907000  0.29575000  1.0 -0.5733043653
O  O25  1  0.12907000  0.53585000  0.79575000  1.0 -0.5733043653
O  O26  1  0.87093000  0.46415000  0.79575000  1.0 -0.5733043653
O  O27  1  0.96415000  0.62907000  0.79575000  1.0 -0.5733043653
O  O28  1  0.03585000  0.37093000  0.79575000  1.0 -0.5733043653
O  O29  1  0.37093000  0.03585000  0.70425000  1.0 -0.5733043653
O  O30  1  0.62907000  0.96415000  0.70425000  1.0 -0.5733043653
O  O31  1  0.53585000  0.12907000  0.70425000  1.0 -0.5733043653
O  O32  1  0.46415000  0.87093000  0.70425000  1.0 -0.5733043653
