# DDEC6 charges by PACMAN v1.1 (https://github.com/mtap-research/PACMAN-charge/)
data_c7ce00332c2_2_FSR_pacman
_symmetry_space_group_name_H-M   'P 1'
_cell_length_a   14.06560000
_cell_length_b   14.06560000
_cell_length_c   15.96290000
_cell_angle_alpha   90.00000000
_cell_angle_beta   90.00000000
_cell_angle_gamma   90.00000000
_symmetry_Int_Tables_number   1
_chemical_formula_structural   Zn2H16C21(N4O3)2
_chemical_formula_sum   'Zn8 H64 C84 N32 O24'
_cell_volume   3158.11774883
_cell_formula_units_Z   4
loop_
 _symmetry_equiv_pos_site_id
 _symmetry_equiv_pos_as_xyz
  1  'x, y, z'
loop_
 _atom_site_type_symbol
 _atom_site_label
 _atom_site_symmetry_multiplicity
 _atom_site_fract_x
 _atom_site_fract_y
 _atom_site_fract_z
 _atom_site_occupancy
 _atom_site_charge
Zn  Zn1  1  0.50506000  0.23068000  0.41039000  1.0 0.744344756
Zn  Zn2  1  0.49494000  0.76932000  0.91039000  1.0 0.744344756
Zn  Zn3  1  0.26932000  0.00506000  0.16039000  1.0 0.744344756
Zn  Zn4  1  0.73068000  0.99494000  0.66039000  1.0 0.744344756
Zn  Zn5  1  0.99494000  0.73068000  0.33961000  1.0 0.744344756
Zn  Zn6  1  0.00506000  0.26932000  0.83961000  1.0 0.744344756
Zn  Zn7  1  0.23068000  0.50506000  0.58961000  1.0 0.744344756
Zn  Zn8  1  0.76932000  0.49494000  0.08961000  1.0 0.744344756
H  H1  1  0.41480000  0.11210000  0.03930000  1.0 0.1307181559
H  H2  1  0.58520000  0.88790000  0.53930000  1.0 0.1307181559
H  H3  1  0.38790000  0.91480000  0.78930000  1.0 0.1307181559
H  H4  1  0.61210000  0.08520000  0.28930000  1.0 0.1307181559
H  H5  1  0.08520000  0.61210000  0.71070000  1.0 0.1307181559
H  H6  1  0.91480000  0.38790000  0.21070000  1.0 0.1307181559
H  H7  1  0.11210000  0.41480000  0.96070000  1.0 0.1307181559
H  H8  1  0.88790000  0.58520000  0.46070000  1.0 0.1307181559
H  H9  1  0.34740000  0.09760000  0.41370000  1.0 0.0823616684
H  H10  1  0.65260000  0.90240000  0.91370000  1.0 0.0823616684
H  H11  1  0.40240000  0.84740000  0.16370000  1.0 0.0823616684
H  H12  1  0.59760000  0.15260000  0.66370000  1.0 0.0823616684
H  H13  1  0.15260000  0.59760000  0.33630000  1.0 0.0823616684
H  H14  1  0.84740000  0.40240000  0.83630000  1.0 0.0823616684
H  H15  1  0.09760000  0.34740000  0.58630000  1.0 0.0823616684
H  H16  1  0.90240000  0.65260000  0.08630000  1.0 0.0823616684
H  H17  1  0.57730000  0.30970000  0.22790000  1.0 0.1470305864
H  H18  1  0.42270000  0.69030000  0.72790000  1.0 0.1470305864
H  H19  1  0.19030000  0.07730000  0.97790000  1.0 0.1470305864
H  H20  1  0.80970000  0.92270000  0.47790000  1.0 0.1470305864
H  H21  1  0.92270000  0.80970000  0.52210000  1.0 0.1470305864
H  H22  1  0.07730000  0.19030000  0.02210000  1.0 0.1470305864
H  H23  1  0.30970000  0.57730000  0.77210000  1.0 0.1470305864
H  H24  1  0.69030000  0.42270000  0.27210000  1.0 0.1470305864
H  H25  1  0.52360000  0.22660000  0.99460000  1.0 0.1307181559
H  H26  1  0.47640000  0.77340000  0.49460000  1.0 0.1307181559
H  H27  1  0.27340000  0.02360000  0.74460000  1.0 0.1307181559
H  H28  1  0.72660000  0.97640000  0.24460000  1.0 0.1307181559
H  H29  1  0.97640000  0.72660000  0.75540000  1.0 0.1307181559
H  H30  1  0.02360000  0.27340000  0.25540000  1.0 0.1307181559
H  H31  1  0.22660000  0.52360000  0.00540000  1.0 0.1249310971
H  H32  1  0.77340000  0.47640000  0.50540000  1.0 0.1307181559
H  H33  1  0.22650000  0.07720000  0.32340000  1.0 0.3464385718
H  H34  1  0.77350000  0.92280000  0.82340000  1.0 0.3464385718
H  H35  1  0.42280000  0.72650000  0.07340000  1.0 0.3464385718
H  H36  1  0.57720000  0.27350000  0.57340000  1.0 0.3464385718
H  H37  1  0.27350000  0.57720000  0.42660000  1.0 0.3464385718
H  H38  1  0.72650000  0.42280000  0.92660000  1.0 0.3464385718
H  H39  1  0.07720000  0.22650000  0.67660000  1.0 0.3464385718
H  H40  1  0.92280000  0.77350000  0.17660000  1.0 0.3464385718
H  H41  1  0.46100000  0.97650000  0.39740000  1.0 0.1417056621
H  H42  1  0.53900000  0.02350000  0.89740000  1.0 0.1307181559
H  H43  1  0.52350000  0.96100000  0.14740000  1.0 0.1417056621
H  H44  1  0.47650000  0.03900000  0.64740000  1.0 0.1307181559
H  H45  1  0.03900000  0.47650000  0.35260000  1.0 0.1417056621
H  H46  1  0.96100000  0.52350000  0.85260000  1.0 0.1307181559
H  H47  1  0.97650000  0.46100000  0.60260000  1.0 0.1307181559
H  H48  1  0.02350000  0.53900000  0.10260000  1.0 0.1417056621
H  H49  1  0.36500000  0.93410000  0.43050000  1.0 0.1581369192
H  H50  1  0.63500000  0.06590000  0.93050000  1.0 0.1581369192
H  H51  1  0.56590000  0.86500000  0.18050000  1.0 0.1581369192
H  H52  1  0.43410000  0.13500000  0.68050000  1.0 0.1581369192
H  H53  1  0.13500000  0.43410000  0.31950000  1.0 0.1581369192
H  H54  1  0.86500000  0.56590000  0.81950000  1.0 0.1581369192
H  H55  1  0.93410000  0.36500000  0.56950000  1.0 0.1581369192
H  H56  1  0.06590000  0.63500000  0.06950000  1.0 0.1581369192
H  H57  1  0.39260000  0.92300000  0.33580000  1.0 0.1470305864
H  H58  1  0.60740000  0.07700000  0.83580000  1.0 0.1470305864
H  H59  1  0.57700000  0.89260000  0.08580000  1.0 0.1470305864
H  H60  1  0.42300000  0.10740000  0.58580000  1.0 0.1470305864
H  H61  1  0.10740000  0.42300000  0.41420000  1.0 0.1470305864
H  H62  1  0.89260000  0.57700000  0.91420000  1.0 0.1470305864
H  H63  1  0.92300000  0.39260000  0.66420000  1.0 0.1470305864
H  H64  1  0.07700000  0.60740000  0.16420000  1.0 0.1470305864
C  C1  1  0.38940000  0.10890000  0.28980000  1.0 0.2914776057
C  C2  1  0.61060000  0.89110000  0.78980000  1.0 0.2914776057
C  C3  1  0.39110000  0.88940000  0.03980000  1.0 0.2914776057
C  C4  1  0.60890000  0.11060000  0.53980000  1.0 0.2914776057
C  C5  1  0.11060000  0.60890000  0.46020000  1.0 0.2914776057
C  C6  1  0.88940000  0.39110000  0.96020000  1.0 0.2914776057
C  C7  1  0.10890000  0.38940000  0.71020000  1.0 0.2914776057
C  C8  1  0.89110000  0.61060000  0.21020000  1.0 0.2914776057
C  C9  1  0.43110000  0.14560000  0.16540000  1.0 0.1417056621
C  C10  1  0.56890000  0.85440000  0.66540000  1.0 0.1417056621
C  C11  1  0.35440000  0.93110000  0.91540000  1.0 0.1417056621
C  C12  1  0.64560000  0.06890000  0.41540000  1.0 0.1417056621
C  C13  1  0.06890000  0.64560000  0.58460000  1.0 0.1417056621
C  C14  1  0.93110000  0.35440000  0.08460000  1.0 0.1417056621
C  C15  1  0.14560000  0.43110000  0.83460000  1.0 0.1417056621
C  C16  1  0.85440000  0.56890000  0.33460000  1.0 0.1417056621
C  C17  1  0.44650000  0.15110000  0.07710000  1.0 -0.1652292162
C  C18  1  0.55350000  0.84890000  0.57710000  1.0 -0.1625790787
C  C19  1  0.34890000  0.94650000  0.82710000  1.0 -0.1625790787
C  C20  1  0.65110000  0.05350000  0.32710000  1.0 -0.1625790787
C  C21  1  0.05350000  0.65110000  0.67290000  1.0 -0.1652292162
C  C22  1  0.94650000  0.34890000  0.17290000  1.0 -0.1625790787
C  C23  1  0.15110000  0.44650000  0.92290000  1.0 -0.1625790787
C  C24  1  0.84890000  0.55350000  0.42290000  1.0 -0.1625790787
C  C25  1  0.38390000  0.38390000  0.50000000  1.0 0.2376926952
C  C26  1  0.61610000  0.61610000  0.00000000  1.0 0.2376926952
C  C27  1  0.11610000  0.88390000  0.25000000  1.0 0.2376926952
C  C28  1  0.88390000  0.11610000  0.75000000  1.0 0.2376926952
C  C29  1  0.56240000  0.27560000  0.10720000  1.0 -0.018130003
C  C30  1  0.43760000  0.72440000  0.60720000  1.0 -0.018130003
C  C31  1  0.22440000  0.06240000  0.85720000  1.0 -0.018130003
C  C32  1  0.77560000  0.93760000  0.35720000  1.0 -0.018130003
C  C33  1  0.93760000  0.77560000  0.64280000  1.0 -0.018130003
C  C34  1  0.06240000  0.22440000  0.14280000  1.0 -0.018130003
C  C35  1  0.27560000  0.56240000  0.89280000  1.0 -0.018130003
C  C36  1  0.72440000  0.43760000  0.39280000  1.0 -0.018130003
C  C37  1  0.48060000  0.20430000  0.22070000  1.0 0.1417056621
C  C38  1  0.51940000  0.79570000  0.72070000  1.0 0.1417056621
C  C39  1  0.29570000  0.98060000  0.97070000  1.0 0.1417056621
C  C40  1  0.70430000  0.01940000  0.47070000  1.0 0.1417056621
C  C41  1  0.01940000  0.70430000  0.52930000  1.0 0.1417056621
C  C42  1  0.98060000  0.29570000  0.02930000  1.0 0.1417056621
C  C43  1  0.20430000  0.48060000  0.77930000  1.0 0.1417056621
C  C44  1  0.79570000  0.51940000  0.27930000  1.0 0.1417056621
C  C45  1  0.34630000  0.05640000  0.36420000  1.0 0.1581369192
C  C46  1  0.65370000  0.94360000  0.86420000  1.0 0.1581369192
C  C47  1  0.44360000  0.84630000  0.11420000  1.0 0.1581369192
C  C48  1  0.55640000  0.15370000  0.61420000  1.0 0.1581369192
C  C49  1  0.15370000  0.55640000  0.38580000  1.0 0.1581369192
C  C50  1  0.84630000  0.44360000  0.88580000  1.0 0.1581369192
C  C51  1  0.05640000  0.34630000  0.63580000  1.0 0.1581369192
C  C52  1  0.94360000  0.65370000  0.13580000  1.0 0.1581369192
C  C53  1  0.62970000  0.34990000  0.07130000  1.0 0.5708680302
C  C54  1  0.37030000  0.65010000  0.57130000  1.0 0.5708680302
C  C55  1  0.15010000  0.12970000  0.82130000  1.0 0.5708680302
C  C56  1  0.84990000  0.87030000  0.32130000  1.0 0.5708680302
C  C57  1  0.87030000  0.84990000  0.67870000  1.0 0.5708680302
C  C58  1  0.12970000  0.15010000  0.17870000  1.0 0.5708680302
C  C59  1  0.34990000  0.62970000  0.92870000  1.0 0.5708680302
C  C60  1  0.65010000  0.37030000  0.42870000  1.0 0.5708680302
C  C61  1  0.54540000  0.26980000  0.19090000  1.0 -0.1625790787
C  C62  1  0.45460000  0.73020000  0.69090000  1.0 -0.1625790787
C  C63  1  0.23020000  0.04540000  0.94090000  1.0 -0.1625790787
C  C64  1  0.76980000  0.95460000  0.44090000  1.0 -0.1625790787
C  C65  1  0.95460000  0.76980000  0.55910000  1.0 -0.1625790787
C  C66  1  0.04540000  0.23020000  0.05910000  1.0 -0.1625790787
C  C67  1  0.26980000  0.54540000  0.80910000  1.0 -0.1625790787
C  C68  1  0.73020000  0.45460000  0.30910000  1.0 -0.1625790787
C  C69  1  0.51250000  0.21900000  0.05160000  1.0 -0.1127808913
C  C70  1  0.48750000  0.78100000  0.55160000  1.0 -0.1127808913
C  C71  1  0.28100000  0.01250000  0.80160000  1.0 -0.1127808913
C  C72  1  0.71900000  0.98750000  0.30160000  1.0 -0.1127808913
C  C73  1  0.98750000  0.71900000  0.69840000  1.0 -0.1127808913
C  C74  1  0.01250000  0.28100000  0.19840000  1.0 -0.1127808913
C  C75  1  0.21900000  0.51250000  0.94840000  1.0 -0.1127808913
C  C76  1  0.78100000  0.48750000  0.44840000  1.0 -0.1127808913
C  C77  1  0.39570000  0.96420000  0.38370000  1.0 -0.4417385757
C  C78  1  0.60430000  0.03580000  0.88370000  1.0 -0.4417385757
C  C79  1  0.53580000  0.89570000  0.13370000  1.0 -0.4417385757
C  C80  1  0.46420000  0.10430000  0.63370000  1.0 -0.4417385757
C  C81  1  0.10430000  0.46420000  0.36630000  1.0 -0.4417385757
C  C82  1  0.89570000  0.53580000  0.86630000  1.0 -0.4417385757
C  C83  1  0.96420000  0.39570000  0.61630000  1.0 -0.4417385757
C  C84  1  0.03580000  0.60430000  0.11630000  1.0 -0.4417385757
N  N1  1  0.45310000  0.17850000  0.30130000  1.0 -0.3922723084
N  N2  1  0.54690000  0.82150000  0.80130000  1.0 -0.3922723084
N  N3  1  0.32150000  0.95310000  0.05130000  1.0 -0.3922723084
N  N4  1  0.67850000  0.04690000  0.55130000  1.0 -0.3922723084
N  N5  1  0.04690000  0.67850000  0.44870000  1.0 -0.3922723084
N  N6  1  0.95310000  0.32150000  0.94870000  1.0 -0.3922723084
N  N7  1  0.17850000  0.45310000  0.69870000  1.0 -0.3922723084
N  N8  1  0.82150000  0.54690000  0.19870000  1.0 -0.3922723084
N  N9  1  0.39680000  0.30080000  0.46750000  1.0 -0.2078856472
N  N10  1  0.60320000  0.69920000  0.96750000  1.0 -0.2078856472
N  N11  1  0.19920000  0.89680000  0.21750000  1.0 -0.2078856472
N  N12  1  0.80080000  0.10320000  0.71750000  1.0 -0.2078856472
N  N13  1  0.10320000  0.80080000  0.28250000  1.0 -0.2078856472
N  N14  1  0.89680000  0.19920000  0.78250000  1.0 -0.2078856472
N  N15  1  0.30080000  0.39680000  0.53250000  1.0 -0.2078856472
N  N16  1  0.69920000  0.60320000  0.03250000  1.0 -0.2078856472
N  N17  1  0.37220000  0.08510000  0.21120000  1.0 -0.3820159137
N  N18  1  0.62780000  0.91490000  0.71120000  1.0 -0.3820159137
N  N19  1  0.41490000  0.87220000  0.96120000  1.0 -0.3820159137
N  N20  1  0.58510000  0.12780000  0.46120000  1.0 -0.3820159137
N  N21  1  0.12780000  0.58510000  0.53880000  1.0 -0.3820159137
N  N22  1  0.87220000  0.41490000  0.03880000  1.0 -0.3820159137
N  N23  1  0.08510000  0.37220000  0.78880000  1.0 -0.3820159137
N  N24  1  0.91490000  0.62780000  0.28880000  1.0 -0.3820159137
N  N25  1  0.31160000  0.25870000  0.47810000  1.0 -0.0476541616
N  N26  1  0.68840000  0.74130000  0.97810000  1.0 -0.0476541616
N  N27  1  0.24130000  0.81160000  0.22810000  1.0 -0.0476541616
N  N28  1  0.75870000  0.18840000  0.72810000  1.0 -0.0476541616
N  N29  1  0.18840000  0.75870000  0.27190000  1.0 -0.0476541616
N  N30  1  0.81160000  0.24130000  0.77190000  1.0 -0.0476541616
N  N31  1  0.25870000  0.31160000  0.52190000  1.0 -0.0476541616
N  N32  1  0.74130000  0.68840000  0.02190000  1.0 -0.0476541616
O  O1  1  0.66810000  0.40570000  0.12360000  1.0 -0.5344211012
O  O2  1  0.33190000  0.59430000  0.62360000  1.0 -0.5344211012
O  O3  1  0.09430000  0.16810000  0.87360000  1.0 -0.5344211012
O  O4  1  0.90570000  0.83190000  0.37360000  1.0 -0.5344211012
O  O5  1  0.83190000  0.90570000  0.62640000  1.0 -0.5344211012
O  O6  1  0.16810000  0.09430000  0.12640000  1.0 -0.5344211012
O  O7  1  0.40570000  0.66810000  0.87640000  1.0 -0.5344211012
O  O8  1  0.59430000  0.33190000  0.37640000  1.0 -0.5344211012
O  O9  1  0.64760000  0.35100000  0.99640000  1.0 -0.5405502841
O  O10  1  0.35240000  0.64900000  0.49640000  1.0 -0.5405502841
O  O11  1  0.14900000  0.14760000  0.74640000  1.0 -0.5405502841
O  O12  1  0.85100000  0.85240000  0.24640000  1.0 -0.5405502841
O  O13  1  0.85240000  0.85100000  0.75360000  1.0 -0.5405502841
O  O14  1  0.14760000  0.14900000  0.25360000  1.0 -0.5405502841
O  O15  1  0.35100000  0.64760000  0.00360000  1.0 -0.5405502841
O  O16  1  0.64900000  0.35240000  0.50360000  1.0 -0.5405502841
O  O17  1  0.25330000  0.03190000  0.34540000  1.0 -0.4417385757
O  O18  1  0.74670000  0.96810000  0.84540000  1.0 -0.4417385757
O  O19  1  0.46810000  0.75330000  0.09540000  1.0 -0.4417385757
O  O20  1  0.53190000  0.24670000  0.59540000  1.0 -0.4417385757
O  O21  1  0.24670000  0.53190000  0.40460000  1.0 -0.4417385757
O  O22  1  0.75330000  0.46810000  0.90460000  1.0 -0.4417385757
O  O23  1  0.03190000  0.25330000  0.65460000  1.0 -0.4417385757
O  O24  1  0.96810000  0.74670000  0.15460000  1.0 -0.4417385757
