# DDEC6 charges by PACMAN v1.1 (https://github.com/mtap-research/PACMAN-charge/)
data_2017[Zn][nan]3[ASR]4
_chemical_formula_sum              "Zn8 H36 C92 O40"
_cell_length_a       9.094
_cell_length_b       12.7134
_cell_length_c       33.9463
_cell_angle_alpha    90
_cell_angle_beta     90
_cell_angle_gamma    90

_symmetry_space_group_name_H-M    "P 1"
_symmetry_Int_Tables_number       1

loop_
  _symmetry_equiv_pos_as_xyz
  'x, y, z'

loop_
  _atom_site_type_symbol
  _atom_site_label
  _atom_site_symmetry_multiplicity
  _atom_site_fract_x
  _atom_site_fract_y
  _atom_site_fract_z
  _atom_site_occupancy
  _atom_site_charge
Zn  Zn1       1.0  0.90176  0.81472  0.17965  1.0000 0.9561099406
Zn  Zn2       1.0  0.23690  0.23644  0.40901  1.0000 0.9369890387
Zn  Zn3       1.0  0.59824  0.18528  0.67965  1.0000 0.9561099406
Zn  Zn4       1.0  0.26310  0.76356  0.90901  1.0000 0.9369890387
Zn  Zn5       1.0  0.09824  0.31472  0.32035  1.0000 0.9561099406
Zn  Zn6       1.0  0.76310  0.73644  0.09099  1.0000 0.9369890387
Zn  Zn7       1.0  0.40176  0.68528  0.82035  1.0000 0.9561099406
Zn  Zn8       1.0  0.73690  0.26356  0.59099  1.0000 0.9369890387
H   H1        1.0  0.09577  0.01993  0.27793  1.0000 0.1475980613
H   H2        1.0  0.87198  0.30640  0.47106  1.0000 0.1475980613
H   H3        1.0  0.23691  0.60418  0.33910  1.0000 0.1305523584
H   H4        1.0  0.22442  0.71729  0.29018  1.0000 0.1305523584
H   H5        1.0  0.33026  0.93287  0.37346  1.0000 0.1305523584
H   H6        1.0  0.71258  0.44990  0.37303  1.0000 0.1305523584
H   H7        1.0  0.52319  0.50279  0.47881  1.0000 0.1305523584
H   H8        1.0  0.50215  0.81837  0.38976  1.0000 0.1241343203
H   H9        1.0  0.62500  0.68591  0.42292  1.0000 0.1305523584
H   H10       1.0  0.40423  0.98007  0.77793  1.0000 0.1475980613
H   H11       1.0  0.62802  0.69360  0.97106  1.0000 0.1475980613
H   H12       1.0  0.26309  0.39582  0.83910  1.0000 0.1305523584
H   H13       1.0  0.27558  0.28271  0.79018  1.0000 0.1305523584
H   H14       1.0  0.16974  0.06713  0.87346  1.0000 0.1305523584
H   H15       1.0  0.78742  0.55010  0.87303  1.0000 0.1305523584
H   H16       1.0  0.97681  0.49721  0.97881  1.0000 0.1305523584
H   H17       1.0  0.99785  0.18163  0.88976  1.0000 0.1241343203
H   H18       1.0  0.87500  0.31409  0.92292  1.0000 0.1305523584
H   H19       1.0  0.90423  0.51993  0.22207  1.0000 0.1475980613
H   H20       1.0  0.12802  0.80640  0.02894  1.0000 0.1475980613
H   H21       1.0  0.76309  0.10418  0.16090  1.0000 0.1305523584
H   H22       1.0  0.77558  0.21729  0.20982  1.0000 0.1305523584
H   H23       1.0  0.66974  0.43287  0.12654  1.0000 0.1305523584
H   H24       1.0  0.28742  0.94990  0.12697  1.0000 0.1305523584
H   H25       1.0  0.47681  0.00279  0.02119  1.0000 0.1305523584
H   H26       1.0  0.49785  0.31837  0.11024  1.0000 0.1241343203
H   H27       1.0  0.37500  0.18591  0.07708  1.0000 0.1305523584
H   H28       1.0  0.59577  0.48007  0.72207  1.0000 0.1475980613
H   H29       1.0  0.37198  0.19360  0.52894  1.0000 0.1475980613
H   H30       1.0  0.73691  0.89582  0.66090  1.0000 0.1305523584
H   H31       1.0  0.72442  0.78271  0.70982  1.0000 0.1305523584
H   H32       1.0  0.83026  0.56713  0.62654  1.0000 0.1305523584
H   H33       1.0  0.21258  0.05010  0.62697  1.0000 0.1305523584
H   H34       1.0  0.02319  0.99721  0.52119  1.0000 0.1305523584
H   H35       1.0  0.00215  0.68163  0.61024  1.0000 0.1241343203
H   H36       1.0  0.12500  0.81409  0.57708  1.0000 0.1305523584
C   C1        1.0  0.36320  0.72580  0.35940  1.0000 0.0672187354
C   C2        1.0  0.14730  0.86190  0.27920  1.0000 0.0106284661
C   C3        1.0  0.14250  0.96630  0.29280  1.0000 -0.0980194858
C   C4        1.0  0.80270  0.35150  0.45870  1.0000 -0.0980194858
C   C5        1.0  0.31640  0.62080  0.35620  1.0000 -0.1317707739
C   C6        1.0  0.28680  0.80970  0.33620  1.0000 0.0777182919
C   C7        1.0  0.81180  0.37160  0.41830  1.0000 -0.0094700583
C   C8        1.0  0.21960  0.78690  0.30020  1.0000 -0.1317707739
C   C9        1.0  0.38470  0.54020  0.37750  1.0000 -0.0686003272
C   C10       1.0  0.28220  0.91360  0.34970  1.0000 -0.1317707739
C   C11       1.0  0.70800  0.43790  0.40060  1.0000 -0.1447288249
C   C12       1.0  0.20690  0.98790  0.32800  1.0000 -0.0020188298
C   C13       1.0  0.20070  0.10040  0.34310  1.0000 0.6154160495
C   C14       1.0  0.59390  0.46760  0.46300  1.0000 -0.1317707739
C   C15       1.0  0.69120  0.39810  0.48060  1.0000 0.0031701798
C   C16       1.0  0.32060  0.43260  0.37360  1.0000 0.6154160495
C   C17       1.0  0.93680  0.32790  0.39470  1.0000 0.6078030463
C   C18       1.0  0.59750  0.48680  0.42280  1.0000 0.0777182919
C   C19       1.0  0.49970  0.56470  0.40260  1.0000 0.0672187354
C   C20       1.0  0.47370  0.74730  0.38560  1.0000 -0.1317707739
C   C21       1.0  0.68600  0.37780  0.52430  1.0000 0.5685239728
C   C22       1.0  0.07510  0.83080  0.24080  1.0000 0.537813067
C   C23       1.0  0.54470  0.66880  0.40620  1.0000 -0.1317707739
C   C24       1.0  0.13680  0.27420  0.85940  1.0000 0.0672187354
C   C25       1.0  0.35270  0.13810  0.77920  1.0000 0.0106284661
C   C26       1.0  0.35750  0.03370  0.79280  1.0000 -0.0980194858
C   C27       1.0  0.69730  0.64850  0.95870  1.0000 -0.0980194858
C   C28       1.0  0.18360  0.37920  0.85620  1.0000 -0.1317707739
C   C29       1.0  0.21320  0.19030  0.83620  1.0000 0.0777182919
C   C30       1.0  0.68820  0.62840  0.91830  1.0000 -0.0094700583
C   C31       1.0  0.28040  0.21310  0.80020  1.0000 -0.1317707739
C   C32       1.0  0.11530  0.45980  0.87750  1.0000 -0.0686003272
C   C33       1.0  0.21780  0.08640  0.84970  1.0000 -0.1317707739
C   C34       1.0  0.79200  0.56210  0.90060  1.0000 -0.1452389662
C   C35       1.0  0.29310  0.01210  0.82800  1.0000 -0.0020188298
C   C36       1.0  0.29930  0.89960  0.84310  1.0000 0.6154160495
C   C37       1.0  0.90610  0.53240  0.96300  1.0000 -0.1317707739
C   C38       1.0  0.80880  0.60190  0.98060  1.0000 0.0031701798
C   C39       1.0  0.17940  0.56740  0.87360  1.0000 0.6154160495
C   C40       1.0  0.56320  0.67210  0.89470  1.0000 0.6078030463
C   C41       1.0  0.90250  0.51320  0.92280  1.0000 0.0777182919
C   C42       1.0  0.00030  0.43530  0.90260  1.0000 0.0672187354
C   C43       1.0  0.02630  0.25270  0.88560  1.0000 -0.1317707739
C   C44       1.0  0.81400  0.62220  0.02430  1.0000 0.5685239728
C   C45       1.0  0.42490  0.16920  0.74080  1.0000 0.537813067
C   C46       1.0  0.95530  0.33120  0.90620  1.0000 -0.1317707739
C   C47       1.0  0.63680  0.22580  0.14060  1.0000 0.0672187354
C   C48       1.0  0.85270  0.36190  0.22080  1.0000 0.0106284661
C   C49       1.0  0.85750  0.46630  0.20720  1.0000 -0.0980194858
C   C50       1.0  0.19730  0.85150  0.04130  1.0000 -0.0980194858
C   C51       1.0  0.68360  0.12080  0.14380  1.0000 -0.1317707739
C   C52       1.0  0.71320  0.30970  0.16380  1.0000 0.0777182919
C   C53       1.0  0.18820  0.87160  0.08170  1.0000 -0.0094700583
C   C54       1.0  0.78040  0.28690  0.19980  1.0000 -0.1317707739
C   C55       1.0  0.61530  0.04020  0.12250  1.0000 -0.0686003272
C   C56       1.0  0.71780  0.41360  0.15030  1.0000 -0.1317707739
C   C57       1.0  0.29200  0.93790  0.09940  1.0000 -0.1447288249
C   C58       1.0  0.79310  0.48790  0.17200  1.0000 -0.0020188298
C   C59       1.0  0.79930  0.60040  0.15690  1.0000 0.6154160495
C   C60       1.0  0.40610  0.96760  0.03700  1.0000 -0.1317707739
C   C61       1.0  0.30880  0.89810  0.01940  1.0000 0.0031701798
C   C62       1.0  0.67940  0.93260  0.12640  1.0000 0.6154160495
C   C63       1.0  0.06320  0.82790  0.10530  1.0000 0.6078030463
C   C64       1.0  0.40250  0.98680  0.07720  1.0000 0.0777182919
C   C65       1.0  0.50030  0.06470  0.09740  1.0000 0.0672187354
C   C66       1.0  0.52630  0.24730  0.11440  1.0000 -0.1317707739
C   C67       1.0  0.31400  0.87780  0.97570  1.0000 0.5685239728
C   C68       1.0  0.92490  0.33080  0.25920  1.0000 0.537813067
C   C69       1.0  0.45530  0.16880  0.09380  1.0000 -0.1317707739
C   C70       1.0  0.86320  0.77420  0.64060  1.0000 0.0672187354
C   C71       1.0  0.64730  0.63810  0.72080  1.0000 0.0106284661
C   C72       1.0  0.64250  0.53370  0.70720  1.0000 -0.0980194858
C   C73       1.0  0.30270  0.14850  0.54130  1.0000 -0.0980194858
C   C74       1.0  0.81640  0.87920  0.64380  1.0000 -0.1317707739
C   C75       1.0  0.78680  0.69030  0.66380  1.0000 0.0777182919
C   C76       1.0  0.31180  0.12840  0.58170  1.0000 -0.0094700583
C   C77       1.0  0.71960  0.71310  0.69980  1.0000 -0.1317707739
C   C78       1.0  0.88470  0.95980  0.62250  1.0000 -0.0686003272
C   C79       1.0  0.78220  0.58640  0.65030  1.0000 -0.1317707739
C   C80       1.0  0.20800  0.06210  0.59940  1.0000 -0.1447288249
C   C81       1.0  0.70690  0.51210  0.67200  1.0000 -0.0020188298
C   C82       1.0  0.70070  0.39960  0.65690  1.0000 0.6154160495
C   C83       1.0  0.09390  0.03240  0.53700  1.0000 -0.1317707739
C   C84       1.0  0.19120  0.10190  0.51940  1.0000 0.0031701798
C   C85       1.0  0.82060  0.06740  0.62640  1.0000 0.6154160495
C   C86       1.0  0.43680  0.17210  0.60530  1.0000 0.6078030463
C   C87       1.0  0.09750  0.01320  0.57720  1.0000 0.0777182919
C   C88       1.0  0.99970  0.93530  0.59740  1.0000 0.0672187354
C   C89       1.0  0.97370  0.75270  0.61440  1.0000 -0.1317707739
C   C90       1.0  0.18600  0.12220  0.47570  1.0000 0.5685239728
C   C91       1.0  0.57510  0.66920  0.75920  1.0000 0.537813067
C   C92       1.0  0.04470  0.83120  0.59380  1.0000 -0.1317707739
O   O1        1.0  0.27930  0.12230  0.37260  1.0000 -0.5302013461
O   O2        1.0  0.34910  0.36480  0.39930  1.0000 -0.512100697
O   O3        1.0  0.77360  0.30550  0.53740  1.0000 -0.5406330083
O   O4        1.0  0.93230  0.34250  0.35790  1.0000 -0.5240470921
O   O5        1.0  0.60100  0.42800  0.54580  1.0000 -0.4985017408
O   O6        1.0  0.11740  0.16270  0.32650  1.0000 -0.512100697
O   O7        1.0  0.10200  0.74680  0.22570  1.0000 -0.4322912549
O   O8        1.0  0.03860  0.28570  0.41340  1.0000 -0.5406330083
O   O9        1.0  0.23940  0.41640  0.34430  1.0000 -0.5579367285
O   O10       1.0  0.98440  0.89130  0.22570  1.0000 -0.4850838189
O   O11       1.0  0.22070  0.87770  0.87260  1.0000 -0.5302013461
O   O12       1.0  0.15090  0.63520  0.89930  1.0000 -0.512100697
O   O13       1.0  0.72640  0.69450  0.03740  1.0000 -0.5406330083
O   O14       1.0  0.56770  0.65750  0.85790  1.0000 -0.5240470921
O   O15       1.0  0.89900  0.57200  0.04580  1.0000 -0.4985017408
O   O16       1.0  0.38260  0.83730  0.82650  1.0000 -0.512100697
O   O17       1.0  0.39800  0.25320  0.72570  1.0000 -0.4322912549
O   O18       1.0  0.46140  0.71430  0.91340  1.0000 -0.5406330083
O   O19       1.0  0.26060  0.58360  0.84430  1.0000 -0.5579367285
O   O20       1.0  0.51560  0.10870  0.72570  1.0000 -0.4850838189
O   O21       1.0  0.72070  0.62230  0.12740  1.0000 -0.5302013461
O   O22       1.0  0.65090  0.86480  0.10070  1.0000 -0.512100697
O   O23       1.0  0.22640  0.80550  0.96260  1.0000 -0.5406330083
O   O24       1.0  0.06770  0.84250  0.14210  1.0000 -0.5240470921
O   O25       1.0  0.39900  0.92800  0.95420  1.0000 -0.4985017408
O   O26       1.0  0.88260  0.66270  0.17350  1.0000 -0.512100697
O   O27       1.0  0.89800  0.24680  0.27430  1.0000 -0.4322912549
O   O28       1.0  0.96140  0.78570  0.08660  1.0000 -0.5406330083
O   O29       1.0  0.76060  0.91640  0.15570  1.0000 -0.5579367285
O   O30       1.0  0.01560  0.39130  0.27430  1.0000 -0.48358357
O   O31       1.0  0.77930  0.37770  0.62740  1.0000 -0.5302013461
O   O32       1.0  0.84910  0.13520  0.60070  1.0000 -0.512100697
O   O33       1.0  0.27360  0.19450  0.46260  1.0000 -0.5406330083
O   O34       1.0  0.43230  0.15750  0.64210  1.0000 -0.5240470921
O   O35       1.0  0.10100  0.07200  0.45420  1.0000 -0.4985017408
O   O36       1.0  0.61740  0.33730  0.67350  1.0000 -0.512100697
O   O37       1.0  0.60200  0.75320  0.77430  1.0000 -0.4322912549
O   O38       1.0  0.53860  0.21430  0.58660  1.0000 -0.5406330083
O   O39       1.0  0.73940  0.08360  0.65570  1.0000 -0.5579367285
O   O40       1.0  0.48440  0.60870  0.77430  1.0000 -0.48358357
