# DDEC6 charges by PACMAN v1.1 (https://github.com/mtap-research/PACMAN-charge/)
data_2023[Zn][nan]3[ASR]16
_chemical_formula_sum              "Zn8 H32 C64 O32"
_cell_length_a       11.0562
_cell_length_b       12.6155
_cell_length_c       15.2102
_cell_angle_alpha    90
_cell_angle_beta     90
_cell_angle_gamma    90

_symmetry_space_group_name_H-M    "P 1"
_symmetry_Int_Tables_number       1

loop_
  _symmetry_equiv_pos_as_xyz
  'x, y, z'

loop_
  _atom_site_type_symbol
  _atom_site_label
  _atom_site_symmetry_multiplicity
  _atom_site_fract_x
  _atom_site_fract_y
  _atom_site_fract_z
  _atom_site_occupancy
  _atom_site_charge
Zn  Zn1       1.0  0.50925  0.55909  0.19883  1.0000 0.936834275
Zn  Zn2       1.0  0.99075  0.44091  0.69883  1.0000 0.936834275
Zn  Zn3       1.0  0.49075  0.05909  0.30117  1.0000 0.936834275
Zn  Zn4       1.0  0.00925  0.94091  0.80117  1.0000 0.936834275
Zn  Zn5       1.0  0.87670  0.63523  0.82198  1.0000 0.9292744242
Zn  Zn6       1.0  0.62330  0.36477  0.32198  1.0000 0.9292744242
Zn  Zn7       1.0  0.12330  0.13523  0.67802  1.0000 0.9292744242
Zn  Zn8       1.0  0.37670  0.86477  0.17802  1.0000 0.9292744242
H   H1        1.0  0.30616  0.33233  0.46366  1.0000 0.1376961798
H   H2        1.0  0.19384  0.66767  0.96366  1.0000 0.1376961798
H   H3        1.0  0.69384  0.83233  0.03634  1.0000 0.1376961798
H   H4        1.0  0.80616  0.16767  0.53634  1.0000 0.1376961798
H   H5        1.0  0.79667  0.54933  0.48336  1.0000 0.1278050498
H   H6        1.0  0.70333  0.45067  0.98336  1.0000 0.1278050498
H   H7        1.0  0.20333  0.04933  0.01664  1.0000 0.1278050498
H   H8        1.0  0.29667  0.95067  0.51664  1.0000 0.1278050498
H   H9        1.0  0.15121  0.52163  0.28402  1.0000 0.1222165134
H   H10       1.0  0.34879  0.47837  0.78402  1.0000 0.1222165134
H   H11       1.0  0.84879  0.02163  0.21598  1.0000 0.1222165134
H   H12       1.0  0.65121  0.97837  0.71598  1.0000 0.1222165134
H   H13       1.0  0.65940  0.80456  0.36271  1.0000 0.1222165134
H   H14       1.0  0.84060  0.19544  0.86271  1.0000 0.1222165134
H   H15       1.0  0.34060  0.30456  0.13729  1.0000 0.1222165134
H   H16       1.0  0.15940  0.69544  0.63729  1.0000 0.1222165134
H   H17       1.0  0.95542  0.41230  0.48569  1.0000 0.1222165134
H   H18       1.0  0.54458  0.58770  0.98569  1.0000 0.1222165134
H   H19       1.0  0.04458  0.91230  0.01431  1.0000 0.1222165134
H   H20       1.0  0.45542  0.08770  0.51431  1.0000 0.1222165134
H   H21       1.0  0.96704  0.50653  0.35540  1.0000 0.1222165134
H   H22       1.0  0.53296  0.49347  0.85540  1.0000 0.1222165134
H   H23       1.0  0.03296  0.00653  0.14460  1.0000 0.1222165134
H   H24       1.0  0.46704  0.99347  0.64460  1.0000 0.1222165134
H   H25       1.0  0.82213  0.83454  0.59703  1.0000 0.1222165134
H   H26       1.0  0.67787  0.16546  0.09703  1.0000 0.1222165134
H   H27       1.0  0.17787  0.33454  0.90297  1.0000 0.1222165134
H   H28       1.0  0.32213  0.66546  0.40297  1.0000 0.1222165134
H   H29       1.0  0.72763  0.91007  0.47524  1.0000 0.1112492823
H   H30       1.0  0.77237  0.08993  0.97524  1.0000 0.1112492823
H   H31       1.0  0.27237  0.41007  0.02476  1.0000 0.1112492823
H   H32       1.0  0.22763  0.58993  0.52476  1.0000 0.1112492823
C   C1        1.0  0.24630  0.42990  0.36700  1.0000 -0.0284995446
C   C2        1.0  0.25370  0.57010  0.86700  1.0000 -0.0284995446
C   C3        1.0  0.75370  0.92990  0.13300  1.0000 -0.0284995446
C   C4        1.0  0.74630  0.07010  0.63300  1.0000 -0.0284995446
C   C5        1.0  0.23880  0.36890  0.44310  1.0000 -0.1119561873
C   C6        1.0  0.26120  0.63110  0.94310  1.0000 -0.1119561873
C   C7        1.0  0.76120  0.86890  0.05690  1.0000 -0.1119561873
C   C8        1.0  0.73880  0.13110  0.55690  1.0000 -0.1119561873
C   C9        1.0  0.78080  0.62170  0.48280  1.0000 -0.1119561873
C   C10       1.0  0.71920  0.37830  0.98280  1.0000 -0.1119561873
C   C11       1.0  0.21920  0.12170  0.01720  1.0000 -0.1119561873
C   C12       1.0  0.28080  0.87830  0.51720  1.0000 -0.1119561873
C   C13       1.0  0.87020  0.63160  0.63230  1.0000 0.5952647619
C   C14       1.0  0.62980  0.36840  0.13230  1.0000 0.5910182336
C   C15       1.0  0.12980  0.13160  0.86770  1.0000 0.5952647619
C   C16       1.0  0.37020  0.86840  0.36770  1.0000 0.5952647619
C   C17       1.0  0.11920  0.29660  0.56880  1.0000 0.5910182336
C   C18       1.0  0.38080  0.70340  0.06880  1.0000 0.5910182336
C   C19       1.0  0.88080  0.79660  0.93120  1.0000 0.5910182336
C   C20       1.0  0.61920  0.20340  0.43120  1.0000 0.5910182336
C   C21       1.0  0.36670  0.44280  0.32180  1.0000 0.5910182336
C   C22       1.0  0.13330  0.55720  0.82180  1.0000 0.5910182336
C   C23       1.0  0.63330  0.94280  0.17820  1.0000 0.5910182336
C   C24       1.0  0.86670  0.05720  0.67820  1.0000 0.5910182336
C   C25       1.0  0.67380  0.59470  0.34020  1.0000 0.5910182336
C   C26       1.0  0.82620  0.40530  0.84020  1.0000 0.5910182336
C   C27       1.0  0.32620  0.09470  0.15980  1.0000 0.5910182336
C   C28       1.0  0.17380  0.90530  0.65980  1.0000 0.5910182336
C   C29       1.0  0.13000  0.36310  0.48800  1.0000 -0.0386770449
C   C30       1.0  0.37000  0.63690  0.98800  1.0000 -0.0386770449
C   C31       1.0  0.87000  0.86310  0.01200  1.0000 -0.0386770449
C   C32       1.0  0.63000  0.13690  0.51200  1.0000 -0.0386770449
C   C33       1.0  0.14540  0.48130  0.33500  1.0000 -0.0961059181
C   C34       1.0  0.35460  0.51870  0.83500  1.0000 -0.0961059181
C   C35       1.0  0.85460  0.98130  0.16500  1.0000 -0.0961059181
C   C36       1.0  0.64540  0.01870  0.66500  1.0000 -0.0961059181
C   C37       1.0  0.72060  0.66600  0.41160  1.0000 -0.024546704
C   C38       1.0  0.77940  0.33400  0.91160  1.0000 -0.024546704
C   C39       1.0  0.27940  0.16600  0.08840  1.0000 -0.024546704
C   C40       1.0  0.22060  0.83400  0.58840  1.0000 -0.024546704
C   C41       1.0  0.70010  0.77430  0.41000  1.0000 -0.0882436277
C   C42       1.0  0.79990  0.22570  0.91000  1.0000 -0.0882436277
C   C43       1.0  0.29990  0.27430  0.09000  1.0000 -0.0882436277
C   C44       1.0  0.20010  0.72570  0.59000  1.0000 -0.0882436277
C   C45       1.0  0.81740  0.68350  0.55260  1.0000 -0.0284995446
C   C46       1.0  0.68260  0.31650  0.05260  1.0000 -0.0284995446
C   C47       1.0  0.18260  0.18350  0.94740  1.0000 -0.0284995446
C   C48       1.0  0.31740  0.81650  0.44740  1.0000 -0.0284995446
C   C49       1.0  0.02830  0.41590  0.45530  1.0000 -0.0961059181
C   C50       1.0  0.47170  0.58410  0.95530  1.0000 -0.0961059181
C   C51       1.0  0.97170  0.91590  0.04470  1.0000 -0.0961059181
C   C52       1.0  0.52830  0.08410  0.54470  1.0000 -0.0961059181
C   C53       1.0  0.03540  0.47350  0.37810  1.0000 -0.0882436277
C   C54       1.0  0.46460  0.52650  0.87810  1.0000 -0.0882436277
C   C55       1.0  0.96460  0.97350  0.12190  1.0000 -0.0882436277
C   C56       1.0  0.53540  0.02650  0.62190  1.0000 -0.0882436277
C   C57       1.0  0.79730  0.79210  0.55040  1.0000 -0.0882436277
C   C58       1.0  0.70270  0.20790  0.05040  1.0000 -0.0882436277
C   C59       1.0  0.20270  0.29210  0.94960  1.0000 -0.0882436277
C   C60       1.0  0.29730  0.70790  0.44960  1.0000 -0.0882436277
C   C61       1.0  0.73940  0.83710  0.47770  1.0000 -0.0882436277
C   C62       1.0  0.76060  0.16290  0.97770  1.0000 -0.0882436277
C   C63       1.0  0.26060  0.33710  0.02230  1.0000 -0.0882436277
C   C64       1.0  0.23940  0.66290  0.52230  1.0000 -0.0882436277
O   O1        1.0  0.18040  0.21340  0.57435  1.0000 -0.5004973195
O   O2        1.0  0.31960  0.78660  0.07435  1.0000 -0.5004973195
O   O3        1.0  0.81960  0.71340  0.92565  1.0000 -0.5004973195
O   O4        1.0  0.68040  0.28660  0.42565  1.0000 -0.5004973195
O   O5        1.0  0.04640  0.32190  0.62929  1.0000 -0.5517368451
O   O6        1.0  0.45360  0.67810  0.12929  1.0000 -0.5517368451
O   O7        1.0  0.95360  0.82190  0.87071  1.0000 -0.5517368451
O   O8        1.0  0.54640  0.17810  0.37071  1.0000 -0.5517368451
O   O9        1.0  0.60140  0.63490  0.28623  1.0000 -0.5308580107
O   O10       1.0  0.89860  0.36510  0.78623  1.0000 -0.5308580107
O   O11       1.0  0.39860  0.13490  0.21377  1.0000 -0.5308580107
O   O12       1.0  0.10140  0.86510  0.71377  1.0000 -0.5308580107
O   O13       1.0  0.90430  0.53810  0.62371  1.0000 -0.5517368451
O   O14       1.0  0.59570  0.46190  0.12371  1.0000 -0.5517368451
O   O15       1.0  0.09570  0.03810  0.87629  1.0000 -0.5517368451
O   O16       1.0  0.40430  0.96190  0.37629  1.0000 -0.5517368451
O   O17       1.0  0.87290  0.68450  0.70195  1.0000 -0.5416708496
O   O18       1.0  0.62710  0.31550  0.20195  1.0000 -0.5308580107
O   O19       1.0  0.12710  0.18450  0.79805  1.0000 -0.5308580107
O   O20       1.0  0.37290  0.81550  0.29805  1.0000 -0.5308580107
O   O21       1.0  0.36660  0.49420  0.25069  1.0000 -0.5517368451
O   O22       1.0  0.13340  0.50580  0.75069  1.0000 -0.5517368451
O   O23       1.0  0.63340  0.99420  0.24931  1.0000 -0.5517368451
O   O24       1.0  0.86660  0.00580  0.74931  1.0000 -0.5517368451
O   O25       1.0  0.70950  0.50010  0.33996  1.0000 -0.5650471158
O   O26       1.0  0.79050  0.49990  0.83996  1.0000 -0.5650471158
O   O27       1.0  0.29050  0.00010  0.16004  1.0000 -0.5650471158
O   O28       1.0  0.20950  0.99990  0.66004  1.0000 -0.5650471158
O   O29       1.0  0.45760  0.40450  0.35808  1.0000 -0.5517368451
O   O30       1.0  0.04240  0.59550  0.85808  1.0000 -0.5517368451
O   O31       1.0  0.54240  0.90450  0.14192  1.0000 -0.5416708496
O   O32       1.0  0.95760  0.09550  0.64192  1.0000 -0.5416708496
