# generated by PACMAN-DDEC6 charge (https://github.com/sxm13/PACMAN/)
data_structure
_chemical_formula_sum              "Ga8 H32 C64 O40"
_cell_length_a       14.896
_cell_length_b       14.896
_cell_length_c       11.939
_cell_angle_alpha    90
_cell_angle_beta     90
_cell_angle_gamma    90

_symmetry_space_group_name_H-M    "P 1"
_symmetry_Int_Tables_number       1

loop_
  _symmetry_equiv_pos_as_xyz
  'x, y, z'

loop_
  _atom_site_type_symbol
  _atom_site_label
  _atom_site_symmetry_multiplicity
  _atom_site_fract_x
  _atom_site_fract_y
  _atom_site_fract_z
  _atom_site_occupancy
  _atom_site_charge
Ga  Ga1       1.0  0.30736  0.30736  0.00000  0.9500 1.4376679226
Ga  Ga2       1.0  0.69264  0.80736  0.25000  0.9500 1.4376679226
Ga  Ga3       1.0  0.69264  0.69264  0.00000  0.9500 1.4376679226
Ga  Ga4       1.0  0.30736  0.19264  0.25000  0.9500 1.4376679226
Ga  Ga5       1.0  0.80736  0.80736  0.50000  0.9500 1.4376679226
Ga  Ga6       1.0  0.19264  0.30736  0.75000  0.9500 1.4376679226
Ga  Ga7       1.0  0.19264  0.19264  0.50000  0.9500 1.4376679226
Ga  Ga8       1.0  0.80736  0.69264  0.75000  0.9500 1.4376679226
H   H1        1.0  0.19170  0.25000  0.12500  1.0000 0.4005098059
H   H2        1.0  0.75000  0.69170  0.37500  1.0000 0.4005098059
H   H3        1.0  0.80830  0.75000  0.12500  1.0000 0.4005098059
H   H4        1.0  0.25000  0.30830  0.37500  1.0000 0.4005098059
H   H5        1.0  0.25000  0.19170  0.87500  1.0000 0.4005098059
H   H6        1.0  0.75000  0.80830  0.87500  1.0000 0.4005098059
H   H7        1.0  0.69170  0.75000  0.62500  1.0000 0.4005098059
H   H8        1.0  0.30830  0.25000  0.62500  1.0000 0.4005098059
H   H9        1.0  0.50000  0.00000  0.12440  1.0000 0.1405632957
H   H10       1.0  0.00000  0.00000  0.37440  1.0000 0.1405632957
H   H11       1.0  0.50000  0.50000  0.12560  1.0000 0.1405632957
H   H12       1.0  0.00000  0.50000  0.87560  1.0000 0.1405632957
H   H13       1.0  0.00000  0.50000  0.62440  1.0000 0.1405632957
H   H14       1.0  0.50000  0.50000  0.87440  1.0000 0.1405632957
H   H15       1.0  0.00000  0.00000  0.62560  1.0000 0.1405632957
H   H16       1.0  0.50000  0.00000  0.37560  1.0000 0.1405632957
H   H17       1.0  0.43610  0.11660  0.83140  1.0000 0.1224449068
H   H18       1.0  0.88340  0.93610  0.08140  1.0000 0.1224449068
H   H19       1.0  0.56390  0.88340  0.83140  1.0000 0.1224449068
H   H20       1.0  0.11660  0.06390  0.08140  1.0000 0.1224449068
H   H21       1.0  0.43610  0.38340  0.41860  1.0000 0.1224449068
H   H22       1.0  0.56390  0.61660  0.41860  1.0000 0.1224449068
H   H23       1.0  0.11660  0.43610  0.16860  1.0000 0.1224449068
H   H24       1.0  0.88340  0.56390  0.16860  1.0000 0.1224449068
H   H25       1.0  0.93610  0.61660  0.33140  1.0000 0.1224449068
H   H26       1.0  0.38340  0.43610  0.58140  1.0000 0.1224449068
H   H27       1.0  0.06390  0.38340  0.33140  1.0000 0.1224449068
H   H28       1.0  0.61660  0.56390  0.58140  1.0000 0.1224449068
H   H29       1.0  0.93610  0.88340  0.91860  1.0000 0.1224449068
H   H30       1.0  0.06390  0.11660  0.91860  1.0000 0.1224449068
H   H31       1.0  0.61660  0.93610  0.66860  1.0000 0.1224449068
H   H32       1.0  0.38340  0.06390  0.66860  1.0000 0.1224449068
C   C1        1.0  0.40850  0.13830  0.04700  1.0000 0.6002234049
C   C2        1.0  0.86170  0.90850  0.29700  1.0000 0.6002234049
C   C3        1.0  0.59150  0.86170  0.04700  1.0000 0.6002234049
C   C4        1.0  0.13830  0.09150  0.29700  1.0000 0.6002234049
C   C5        1.0  0.40850  0.36170  0.20300  1.0000 0.6002234049
C   C6        1.0  0.59150  0.63830  0.20300  1.0000 0.6002234049
C   C7        1.0  0.13830  0.40850  0.95300  1.0000 0.6002234049
C   C8        1.0  0.86170  0.59150  0.95300  1.0000 0.6002234049
C   C9        1.0  0.90850  0.63830  0.54700  1.0000 0.6002234049
C   C10       1.0  0.36170  0.40850  0.79700  1.0000 0.6002234049
C   C11       1.0  0.09150  0.36170  0.54700  1.0000 0.6002234049
C   C12       1.0  0.63830  0.59150  0.79700  1.0000 0.6002234049
C   C13       1.0  0.90850  0.86170  0.70300  1.0000 0.6002234049
C   C14       1.0  0.09150  0.13830  0.70300  1.0000 0.6002234049
C   C15       1.0  0.63830  0.90850  0.45300  1.0000 0.6002234049
C   C16       1.0  0.36170  0.09150  0.45300  1.0000 0.6002234049
C   C17       1.0  0.45660  0.06920  0.98830  1.0000 -0.0751925469
C   C18       1.0  0.93080  0.95660  0.23830  1.0000 -0.0732361496
C   C19       1.0  0.54340  0.93080  0.98830  1.0000 -0.0732361496
C   C20       1.0  0.06920  0.04340  0.23830  1.0000 -0.0732361496
C   C21       1.0  0.45660  0.43080  0.26170  1.0000 -0.0732361496
C   C22       1.0  0.54340  0.56920  0.26170  1.0000 -0.0732361496
C   C23       1.0  0.06920  0.45660  0.01170  1.0000 -0.0751925469
C   C24       1.0  0.93080  0.54340  0.01170  1.0000 -0.0732361496
C   C25       1.0  0.95660  0.56920  0.48830  1.0000 -0.0732361496
C   C26       1.0  0.43080  0.45660  0.73830  1.0000 -0.0751925469
C   C27       1.0  0.04340  0.43080  0.48830  1.0000 -0.0732361496
C   C28       1.0  0.56920  0.54340  0.73830  1.0000 -0.0732361496
C   C29       1.0  0.95660  0.93080  0.76170  1.0000 -0.0732361496
C   C30       1.0  0.04340  0.06920  0.76170  1.0000 -0.0732361496
C   C31       1.0  0.56920  0.95660  0.51170  1.0000 -0.0732361496
C   C32       1.0  0.43080  0.04340  0.51170  1.0000 -0.0732361496
C   C33       1.0  0.50000  0.00000  0.04650  1.0000 -0.0732361496
C   C34       1.0  0.00000  0.00000  0.29650  1.0000 -0.0732361496
C   C35       1.0  0.50000  0.50000  0.20350  1.0000 -0.0732361496
C   C36       1.0  0.00000  0.50000  0.95350  1.0000 -0.0732361496
C   C37       1.0  0.00000  0.50000  0.54650  1.0000 -0.0732361496
C   C38       1.0  0.50000  0.50000  0.79650  1.0000 -0.0732361496
C   C39       1.0  0.00000  0.00000  0.70350  1.0000 -0.0732361496
C   C40       1.0  0.50000  0.00000  0.45350  1.0000 -0.0732361496
C   C41       1.0  0.46070  0.06890  0.87120  1.0000 -0.1206645039
C   C42       1.0  0.93110  0.96070  0.12120  1.0000 -0.1206645039
C   C43       1.0  0.53930  0.93110  0.87120  1.0000 -0.1206645039
C   C44       1.0  0.06890  0.03930  0.12120  1.0000 -0.1206645039
C   C45       1.0  0.46070  0.43110  0.37880  1.0000 -0.1206645039
C   C46       1.0  0.53930  0.56890  0.37880  1.0000 -0.1206645039
C   C47       1.0  0.06890  0.46070  0.12880  1.0000 -0.1206645039
C   C48       1.0  0.93110  0.53930  0.12880  1.0000 -0.1206645039
C   C49       1.0  0.96070  0.56890  0.37120  1.0000 -0.1206645039
C   C50       1.0  0.43110  0.46070  0.62120  1.0000 -0.1206645039
C   C51       1.0  0.03930  0.43110  0.37120  1.0000 -0.1206645039
C   C52       1.0  0.56890  0.53930  0.62120  1.0000 -0.1206645039
C   C53       1.0  0.96070  0.93110  0.87880  1.0000 -0.1206645039
C   C54       1.0  0.03930  0.06890  0.87880  1.0000 -0.1206645039
C   C55       1.0  0.56890  0.96070  0.62880  1.0000 -0.1206645039
C   C56       1.0  0.43110  0.03930  0.62880  1.0000 -0.1206645039
C   C57       1.0  0.50000  0.00000  0.81450  1.0000 0.0767726028
C   C58       1.0  0.00000  0.00000  0.06450  1.0000 0.0767726028
C   C59       1.0  0.50000  0.50000  0.43550  1.0000 0.0767726028
C   C60       1.0  0.00000  0.50000  0.18550  1.0000 0.0767726028
C   C61       1.0  0.00000  0.50000  0.31450  1.0000 0.0767726028
C   C62       1.0  0.50000  0.50000  0.56450  1.0000 0.0767726028
C   C63       1.0  0.00000  0.00000  0.93550  1.0000 0.0767726028
C   C64       1.0  0.50000  0.00000  0.68550  1.0000 0.0767726028
O   O1        1.0  0.39890  0.21280  0.99530  1.0000 -0.5641962478
O   O2        1.0  0.78720  0.89890  0.24530  1.0000 -0.5652877823
O   O3        1.0  0.60110  0.78720  0.99530  1.0000 -0.5641962478
O   O4        1.0  0.21280  0.10110  0.24530  1.0000 -0.5641962478
O   O5        1.0  0.39890  0.28720  0.25470  1.0000 -0.5641962478
O   O6        1.0  0.60110  0.71280  0.25470  1.0000 -0.5641962478
O   O7        1.0  0.21280  0.39890  0.00470  1.0000 -0.5641962478
O   O8        1.0  0.78720  0.60110  0.00470  1.0000 -0.5652877823
O   O9        1.0  0.89890  0.71280  0.49530  1.0000 -0.5641962478
O   O10       1.0  0.28720  0.39890  0.74530  1.0000 -0.5641962478
O   O11       1.0  0.10110  0.28720  0.49530  1.0000 -0.5652877823
O   O12       1.0  0.71280  0.60110  0.74530  1.0000 -0.5641962478
O   O13       1.0  0.89890  0.78720  0.75470  1.0000 -0.5652877823
O   O14       1.0  0.10110  0.21280  0.75470  1.0000 -0.5641962478
O   O15       1.0  0.71280  0.89890  0.50470  1.0000 -0.5641962478
O   O16       1.0  0.28720  0.10110  0.50470  1.0000 -0.5652877823
O   O17       1.0  0.24690  0.25000  0.12500  1.0000 -0.8657792792
O   O18       1.0  0.75000  0.74690  0.37500  1.0000 -0.8657792792
O   O19       1.0  0.75310  0.75000  0.12500  1.0000 -0.8657792792
O   O20       1.0  0.25000  0.25310  0.37500  1.0000 -0.8657792792
O   O21       1.0  0.25000  0.24690  0.87500  1.0000 -0.8657792792
O   O22       1.0  0.75000  0.75310  0.87500  1.0000 -0.8657792792
O   O23       1.0  0.74690  0.75000  0.62500  1.0000 -0.8657792792
O   O24       1.0  0.25310  0.25000  0.62500  1.0000 -0.8657792792
O   O25       1.0  0.37890  0.12130  0.14360  1.0000 -0.5221125804
O   O26       1.0  0.87870  0.87890  0.39360  1.0000 -0.5221125804
O   O27       1.0  0.62110  0.87870  0.14360  1.0000 -0.5221125804
O   O28       1.0  0.12130  0.12110  0.39360  1.0000 -0.5221125804
O   O29       1.0  0.37890  0.37870  0.10640  1.0000 -0.5221125804
O   O30       1.0  0.62110  0.62130  0.10640  1.0000 -0.5221125804
O   O31       1.0  0.12130  0.37890  0.85640  1.0000 -0.5221125804
O   O32       1.0  0.87870  0.62110  0.85640  1.0000 -0.5221125804
O   O33       1.0  0.87890  0.62130  0.64360  1.0000 -0.5221125804
O   O34       1.0  0.37870  0.37890  0.89360  1.0000 -0.5221125804
O   O35       1.0  0.12110  0.37870  0.64360  1.0000 -0.5221125804
O   O36       1.0  0.62130  0.62110  0.89360  1.0000 -0.5221125804
O   O37       1.0  0.87890  0.87870  0.60640  1.0000 -0.5221125804
O   O38       1.0  0.12110  0.12130  0.60640  1.0000 -0.5221125804
O   O39       1.0  0.62130  0.87890  0.35640  1.0000 -0.5221125804
O   O40       1.0  0.37870  0.12110  0.35640  1.0000 -0.5221125804
  Fe  Fe1       1.0  0.30736  0.30736  0.00000  0.0500
  Fe  Fe2       1.0  0.69264  0.80736  0.25000  0.0500
  Fe  Fe3       1.0  0.69264  0.69264  0.00000  0.0500
  Fe  Fe4       1.0  0.30736  0.19264  0.25000  0.0500
  Fe  Fe5       1.0  0.80736  0.80736  0.50000  0.0500
  Fe  Fe6       1.0  0.19264  0.30736  0.75000  0.0500
  Fe  Fe7       1.0  0.19264  0.19264  0.50000  0.0500
  Fe  Fe8       1.0  0.80736  0.69264  0.75000  0.0500
