# DDEC6 charges by PACMAN v1.1 (https://github.com/mtap-research/PACMAN-charge/)
data_2020[Zn][nan]3[ASR]3
_chemical_formula_sum              "Zn4 H64 C92 O32"
_cell_length_a       4.6807
_cell_length_b       18.9825
_cell_length_c       24.5273
_cell_angle_alpha    90
_cell_angle_beta     90
_cell_angle_gamma    90

_symmetry_space_group_name_H-M    "P 1"
_symmetry_Int_Tables_number       1

loop_
  _symmetry_equiv_pos_as_xyz
  'x, y, z'

loop_
  _atom_site_type_symbol
  _atom_site_label
  _atom_site_symmetry_multiplicity
  _atom_site_fract_x
  _atom_site_fract_y
  _atom_site_fract_z
  _atom_site_occupancy
  _atom_site_charge
Zn  Zn1       1.0  0.30440  0.44759  0.54546  1.0000 1.007042453
Zn  Zn2       1.0  0.80440  0.55241  0.45454  1.0000 1.007042453
Zn  Zn3       1.0  0.30440  0.94759  0.95454  1.0000 1.007042453
Zn  Zn4       1.0  0.80440  0.05241  0.04546  1.0000 1.007042453
H   H1        1.0  0.21220  0.36066  0.64583  1.0000 0.3567837927
H   H2        1.0  0.51154  0.46084  0.84220  1.0000 0.1378495957
H   H3        1.0  0.42662  0.54571  0.69116  1.0000 0.1378495957
H   H4        1.0  0.98066  0.38437  0.71641  1.0000 0.118713563
H   H5        1.0  0.22453  0.33043  0.78450  1.0000 0.1097059989
H   H6        1.0  0.94512  0.28509  0.76989  1.0000 0.1029130671
H   H7        1.0  0.82050  0.18369  0.82266  1.0000 0.1097059989
H   H8        1.0  0.91469  0.10622  0.89375  1.0000 0.1274061057
H   H9        1.0  0.51900  0.23776  0.95110  1.0000 0.118713563
H   H10       1.0  0.41880  0.31921  0.88173  1.0000 0.118713563
H   H11       1.0  0.38399  0.57277  0.86300  1.0000 0.1029130671
H   H12       1.0  0.10881  0.52306  0.85617  1.0000 0.1097059989
H   H13       1.0  0.13638  0.14567  0.56863  1.0000 0.118713563
H   H14       1.0  0.82816  0.24007  0.55158  1.0000 0.118713563
H   H15       1.0  0.54349  0.23103  0.70615  1.0000 0.1097059989
H   H16       1.0  0.83897  0.13513  0.72339  1.0000 0.118713563
H   H17       1.0  0.71220  0.63934  0.35417  1.0000 0.3567837927
H   H18       1.0  0.01154  0.53916  0.15780  1.0000 0.1378495957
H   H19       1.0  0.92662  0.45429  0.30884  1.0000 0.1378495957
H   H20       1.0  0.48066  0.61563  0.28359  1.0000 0.118713563
H   H21       1.0  0.72453  0.66957  0.21550  1.0000 0.1097059989
H   H22       1.0  0.44512  0.71491  0.23011  1.0000 0.1029130671
H   H23       1.0  0.32050  0.81631  0.17734  1.0000 0.1097059989
H   H24       1.0  0.41469  0.89378  0.10625  1.0000 0.1274061057
H   H25       1.0  0.01900  0.76224  0.04890  1.0000 0.118713563
H   H26       1.0  0.91880  0.68079  0.11827  1.0000 0.118713563
H   H27       1.0  0.88399  0.42723  0.13700  1.0000 0.1029130671
H   H28       1.0  0.60881  0.47694  0.14383  1.0000 0.1097059989
H   H29       1.0  0.63638  0.85433  0.43137  1.0000 0.118713563
H   H30       1.0  0.32816  0.75993  0.44842  1.0000 0.118713563
H   H31       1.0  0.04349  0.76897  0.29385  1.0000 0.1097059989
H   H32       1.0  0.33897  0.86487  0.27661  1.0000 0.118713563
H   H33       1.0  0.21220  0.86066  0.85417  1.0000 0.3567837927
H   H34       1.0  0.51154  0.96084  0.65780  1.0000 0.1378495957
H   H35       1.0  0.42662  0.04571  0.80884  1.0000 0.1378495957
H   H36       1.0  0.98066  0.88437  0.78359  1.0000 0.118713563
H   H37       1.0  0.22453  0.83043  0.71550  1.0000 0.1097059989
H   H38       1.0  0.94512  0.78509  0.73011  1.0000 0.1029130671
H   H39       1.0  0.82050  0.68369  0.67734  1.0000 0.1097059989
H   H40       1.0  0.91469  0.60622  0.60625  1.0000 0.1274061057
H   H41       1.0  0.51900  0.73776  0.54890  1.0000 0.118713563
H   H42       1.0  0.41880  0.81921  0.61827  1.0000 0.118713563
H   H43       1.0  0.38399  0.07277  0.63700  1.0000 0.1029130671
H   H44       1.0  0.10881  0.02306  0.64383  1.0000 0.1097059989
H   H45       1.0  0.13638  0.64567  0.93137  1.0000 0.118713563
H   H46       1.0  0.82816  0.74007  0.94842  1.0000 0.118713563
H   H47       1.0  0.54349  0.73103  0.79385  1.0000 0.1097059989
H   H48       1.0  0.83897  0.63513  0.77661  1.0000 0.118713563
H   H49       1.0  0.71220  0.13934  0.14583  1.0000 0.3567837927
H   H50       1.0  0.01154  0.03916  0.34220  1.0000 0.1378495957
H   H51       1.0  0.92662  0.95429  0.19116  1.0000 0.1378495957
H   H52       1.0  0.48066  0.11563  0.21641  1.0000 0.118713563
H   H53       1.0  0.72453  0.16957  0.28450  1.0000 0.1097059989
H   H54       1.0  0.44512  0.21491  0.26989  1.0000 0.1029130671
H   H55       1.0  0.32050  0.31631  0.32266  1.0000 0.1097059989
H   H56       1.0  0.41469  0.39378  0.39375  1.0000 0.1274061057
H   H57       1.0  0.01900  0.26224  0.45110  1.0000 0.118713563
H   H58       1.0  0.91880  0.18079  0.38173  1.0000 0.118713563
H   H59       1.0  0.88399  0.92723  0.36300  1.0000 0.1029130671
H   H60       1.0  0.60881  0.97694  0.35617  1.0000 0.1097059989
H   H61       1.0  0.63638  0.35433  0.06863  1.0000 0.118713563
H   H62       1.0  0.32816  0.25993  0.05158  1.0000 0.118713563
H   H63       1.0  0.04349  0.26897  0.20615  1.0000 0.1097059989
H   H64       1.0  0.33897  0.36487  0.22339  1.0000 0.118713563
C   C1        1.0  0.76300  0.41310  0.78400  1.0000 0.2801458392
C   C2        1.0  0.56500  0.46180  0.80480  1.0000 -0.3627775755
C   C3        1.0  0.44900  0.51120  0.76990  1.0000 0.2746133807
C   C4        1.0  0.51400  0.51250  0.71490  1.0000 -0.2691083845
C   C5        1.0  0.71300  0.46350  0.69500  1.0000 0.0223119672
C   C6        1.0  0.83900  0.41580  0.72990  1.0000 -0.2691083845
C   C7        1.0  0.78400  0.46410  0.63550  1.0000 0.5822860453
C   C8        1.0  0.04600  0.31040  0.79950  1.0000 -0.0816937249
C   C9        1.0  0.11100  0.26150  0.84470  1.0000 0.0907349962
C   C10       1.0  0.96200  0.19530  0.84900  1.0000 -0.1568426635
C   C11       1.0  0.02000  0.14890  0.89050  1.0000 -0.0816937249
C   C12       1.0  0.22820  0.16470  0.92680  1.0000 -0.02234201
C   C13       1.0  0.37700  0.22750  0.92460  1.0000 -0.0989739668
C   C14       1.0  0.31700  0.27600  0.88330  1.0000 -0.1568426635
C   C15       1.0  0.31700  0.11080  0.96950  1.0000 0.6126804206
C   C16       1.0  0.20200  0.56660  0.84290  1.0000 -0.0816937249
C   C17       1.0  0.01100  0.12870  0.64770  1.0000 0.1029130671
C   C18       1.0  0.01200  0.16190  0.59650  1.0000 -0.1675415892
C   C19       1.0  0.83000  0.21870  0.58660  1.0000 -0.0816937249
C   C20       1.0  0.65200  0.24430  0.62730  1.0000 -0.0618729886
C   C21       1.0  0.66100  0.21310  0.67770  1.0000 -0.0989739668
C   C22       1.0  0.83800  0.15590  0.68810  1.0000 -0.14886637
C   C23       1.0  0.48000  0.30670  0.61530  1.0000 0.5617841932
C   C24       1.0  0.26300  0.58690  0.21600  1.0000 0.2801458392
C   C25       1.0  0.06500  0.53820  0.19520  1.0000 -0.3627775755
C   C26       1.0  0.94900  0.48880  0.23010  1.0000 0.2746133807
C   C27       1.0  0.01400  0.48750  0.28510  1.0000 -0.2691083845
C   C28       1.0  0.21300  0.53650  0.30500  1.0000 0.0223119672
C   C29       1.0  0.33900  0.58420  0.27010  1.0000 -0.2691083845
C   C30       1.0  0.28400  0.53590  0.36450  1.0000 0.5822860453
C   C31       1.0  0.54600  0.68960  0.20050  1.0000 -0.0816937249
C   C32       1.0  0.61100  0.73850  0.15530  1.0000 0.0907349962
C   C33       1.0  0.46200  0.80470  0.15100  1.0000 -0.1568426635
C   C34       1.0  0.52000  0.85110  0.10950  1.0000 -0.0816937249
C   C35       1.0  0.72820  0.83530  0.07320  1.0000 -0.02234201
C   C36       1.0  0.87700  0.77250  0.07540  1.0000 -0.0989739668
C   C37       1.0  0.81700  0.72400  0.11670  1.0000 -0.1568426635
C   C38       1.0  0.81700  0.88920  0.03050  1.0000 0.6126804206
C   C39       1.0  0.70200  0.43340  0.15710  1.0000 -0.0816937249
C   C40       1.0  0.51100  0.87130  0.35230  1.0000 0.1029130671
C   C41       1.0  0.51200  0.83810  0.40350  1.0000 -0.1675415892
C   C42       1.0  0.33000  0.78130  0.41340  1.0000 -0.0816937249
C   C43       1.0  0.15200  0.75570  0.37270  1.0000 -0.0618729886
C   C44       1.0  0.16100  0.78690  0.32230  1.0000 -0.0989739668
C   C45       1.0  0.33800  0.84410  0.31190  1.0000 -0.14886637
C   C46       1.0  0.98000  0.69330  0.38470  1.0000 0.5617841932
C   C47       1.0  0.76300  0.91310  0.71600  1.0000 0.2801458392
C   C48       1.0  0.56500  0.96180  0.69520  1.0000 -0.3627775755
C   C49       1.0  0.44900  0.01120  0.73010  1.0000 0.2746133807
C   C50       1.0  0.51400  0.01250  0.78510  1.0000 -0.2691083845
C   C51       1.0  0.71300  0.96350  0.80500  1.0000 0.0223119672
C   C52       1.0  0.83900  0.91580  0.77010  1.0000 -0.2691083845
C   C53       1.0  0.78400  0.96410  0.86450  1.0000 0.5822860453
C   C54       1.0  0.04600  0.81040  0.70050  1.0000 -0.0816937249
C   C55       1.0  0.11100  0.76150  0.65530  1.0000 0.0907349962
C   C56       1.0  0.96200  0.69530  0.65100  1.0000 -0.1568426635
C   C57       1.0  0.02000  0.64890  0.60950  1.0000 -0.0816937249
C   C58       1.0  0.22820  0.66470  0.57320  1.0000 -0.02234201
C   C59       1.0  0.37700  0.72750  0.57540  1.0000 -0.0989739668
C   C60       1.0  0.31700  0.77600  0.61670  1.0000 -0.1568426635
C   C61       1.0  0.31700  0.61080  0.53050  1.0000 0.6126804206
C   C62       1.0  0.20200  0.06660  0.65710  1.0000 -0.0816937249
C   C63       1.0  0.01100  0.62870  0.85230  1.0000 0.1029130671
C   C64       1.0  0.01200  0.66190  0.90350  1.0000 -0.1675415892
C   C65       1.0  0.83000  0.71870  0.91340  1.0000 -0.0816937249
C   C66       1.0  0.65200  0.74430  0.87270  1.0000 -0.0618729886
C   C67       1.0  0.66100  0.71310  0.82230  1.0000 -0.0989739668
C   C68       1.0  0.83800  0.65590  0.81190  1.0000 -0.14886637
C   C69       1.0  0.48000  0.80670  0.88470  1.0000 0.5617841932
C   C70       1.0  0.26300  0.08690  0.28400  1.0000 0.2801458392
C   C71       1.0  0.06500  0.03820  0.30480  1.0000 -0.3627775755
C   C72       1.0  0.94900  0.98880  0.26990  1.0000 0.2746133807
C   C73       1.0  0.01400  0.98750  0.21490  1.0000 -0.2691083845
C   C74       1.0  0.21300  0.03650  0.19500  1.0000 0.0223119672
C   C75       1.0  0.33900  0.08420  0.22990  1.0000 -0.2691083845
C   C76       1.0  0.28400  0.03590  0.13550  1.0000 0.5822860453
C   C77       1.0  0.54600  0.18960  0.29950  1.0000 -0.0816937249
C   C78       1.0  0.61100  0.23850  0.34470  1.0000 0.0907349962
C   C79       1.0  0.46200  0.30470  0.34900  1.0000 -0.1568426635
C   C80       1.0  0.52000  0.35110  0.39050  1.0000 -0.0816937249
C   C81       1.0  0.72820  0.33530  0.42680  1.0000 -0.02234201
C   C82       1.0  0.87700  0.27250  0.42460  1.0000 -0.0989739668
C   C83       1.0  0.81700  0.22400  0.38330  1.0000 -0.1568426635
C   C84       1.0  0.81700  0.38920  0.46950  1.0000 0.6126804206
C   C85       1.0  0.70200  0.93340  0.34290  1.0000 -0.0816937249
C   C86       1.0  0.51100  0.37130  0.14770  1.0000 0.1029130671
C   C87       1.0  0.51200  0.33810  0.09650  1.0000 -0.1675415892
C   C88       1.0  0.33000  0.28130  0.08660  1.0000 -0.0816937249
C   C89       1.0  0.15200  0.25570  0.12730  1.0000 -0.0618729886
C   C90       1.0  0.16100  0.28690  0.17770  1.0000 -0.0989739668
C   C91       1.0  0.33800  0.34410  0.18810  1.0000 -0.14886637
C   C92       1.0  0.98000  0.19330  0.11530  1.0000 0.5617841932
O   O1        1.0  0.86670  0.36610  0.82060  1.0000 -0.1815738861
O   O2        1.0  0.25800  0.56100  0.78610  1.0000 -0.1815738861
O   O3        1.0  0.02290  0.43340  0.62150  1.0000 -0.5958428529
O   O4        1.0  0.63230  0.49600  0.60320  1.0000 -0.5088630464
O   O5        1.0  0.16400  0.55650  0.52250  1.0000 -0.5842871513
O   O6        1.0  0.04950  0.37890  0.49260  1.0000 -0.5176424679
O   O7        1.0  0.31300  0.32650  0.65590  1.0000 -0.4707621034
O   O8        1.0  0.49430  0.33840  0.57170  1.0000 -0.4707621034
O   O9        1.0  0.36670  0.63390  0.17940  1.0000 -0.1815738861
O   O10       1.0  0.75800  0.43900  0.21390  1.0000 -0.1815738861
O   O11       1.0  0.52290  0.56660  0.37850  1.0000 -0.5958428529
O   O12       1.0  0.13230  0.50400  0.39680  1.0000 -0.5088630464
O   O13       1.0  0.66400  0.44350  0.47750  1.0000 -0.5842871513
O   O14       1.0  0.54950  0.62110  0.50740  1.0000 -0.5176424679
O   O15       1.0  0.81300  0.67350  0.34410  1.0000 -0.4707621034
O   O16       1.0  0.99430  0.66160  0.42830  1.0000 -0.4707621034
O   O17       1.0  0.86670  0.86610  0.67940  1.0000 -0.1815738861
O   O18       1.0  0.25800  0.06100  0.71390  1.0000 -0.1815738861
O   O19       1.0  0.02290  0.93340  0.87850  1.0000 -0.5958428529
O   O20       1.0  0.63230  0.99600  0.89680  1.0000 -0.5088630464
O   O21       1.0  0.16400  0.05650  0.97750  1.0000 -0.5842871513
O   O22       1.0  0.04950  0.87890  0.00740  1.0000 -0.5176424679
O   O23       1.0  0.31300  0.82650  0.84410  1.0000 -0.4707621034
O   O24       1.0  0.49430  0.83840  0.92830  1.0000 -0.4707621034
O   O25       1.0  0.36670  0.13390  0.32060  1.0000 -0.1815738861
O   O26       1.0  0.75800  0.93900  0.28610  1.0000 -0.1815738861
O   O27       1.0  0.52290  0.06660  0.12150  1.0000 -0.5958428529
O   O28       1.0  0.13230  0.00400  0.10320  1.0000 -0.5088630464
O   O29       1.0  0.66400  0.94350  0.02250  1.0000 -0.5842871513
O   O30       1.0  0.54950  0.12110  0.99260  1.0000 -0.5176424679
O   O31       1.0  0.81300  0.17350  0.15590  1.0000 -0.4707621034
O   O32       1.0  0.99430  0.16160  0.07170  1.0000 -0.4707621034
