# DDEC6 charges by PACMAN v1.1 (https://github.com/mtap-research/PACMAN-charge/)
data_2009[Zn][pcu]3[FSR]2
_chemical_formula_sum              "Zn24 H72 C48 S8 N96"
_cell_length_a       16.282
_cell_length_b       16.282
_cell_length_c       16.282
_cell_angle_alpha    90
_cell_angle_beta     90
_cell_angle_gamma    90

_symmetry_space_group_name_H-M    "P 1"
_symmetry_Int_Tables_number       1

loop_
  _symmetry_equiv_pos_as_xyz
  'x, y, z'

loop_
  _atom_site_type_symbol
  _atom_site_label
  _atom_site_symmetry_multiplicity
  _atom_site_fract_x
  _atom_site_fract_y
  _atom_site_fract_z
  _atom_site_occupancy
  _atom_site_charge
Zn  Zn1       1.0  0.37116  0.23353  0.22495  1.0000 0.6143018644
Zn  Zn2       1.0  0.62884  0.76647  0.22495  1.0000 0.6143018644
Zn  Zn3       1.0  0.62884  0.23353  0.77505  1.0000 0.6143018644
Zn  Zn4       1.0  0.37116  0.76647  0.77505  1.0000 0.6143018644
Zn  Zn5       1.0  0.22495  0.37116  0.23353  1.0000 0.6143018644
Zn  Zn6       1.0  0.22495  0.62884  0.76647  1.0000 0.6143018644
Zn  Zn7       1.0  0.77505  0.62884  0.23353  1.0000 0.6143018644
Zn  Zn8       1.0  0.77505  0.37116  0.76647  1.0000 0.6143018644
Zn  Zn9       1.0  0.23353  0.22495  0.37116  1.0000 0.6143018644
Zn  Zn10      1.0  0.76647  0.22495  0.62884  1.0000 0.6143018644
Zn  Zn11      1.0  0.23353  0.77505  0.62884  1.0000 0.6143018644
Zn  Zn12      1.0  0.76647  0.77505  0.37116  1.0000 0.6143018644
Zn  Zn13      1.0  0.87116  0.73353  0.72495  1.0000 0.6143018644
Zn  Zn14      1.0  0.12884  0.26647  0.72495  1.0000 0.6143018644
Zn  Zn15      1.0  0.12884  0.73353  0.27505  1.0000 0.6143018644
Zn  Zn16      1.0  0.87116  0.26647  0.27505  1.0000 0.6143018644
Zn  Zn17      1.0  0.72495  0.87116  0.73353  1.0000 0.6143018644
Zn  Zn18      1.0  0.72495  0.12884  0.26647  1.0000 0.6143018644
Zn  Zn19      1.0  0.27505  0.12884  0.73353  1.0000 0.6143018644
Zn  Zn20      1.0  0.27505  0.87116  0.26647  1.0000 0.6143018644
Zn  Zn21      1.0  0.73353  0.72495  0.87116  1.0000 0.6143018644
Zn  Zn22      1.0  0.26647  0.72495  0.12884  1.0000 0.6143018644
Zn  Zn23      1.0  0.73353  0.27505  0.12884  1.0000 0.6143018644
Zn  Zn24      1.0  0.26647  0.27505  0.87116  1.0000 0.6143018644
H   H1        1.0  0.36670  0.21340  0.02230  1.0000 0.0989452144
H   H2        1.0  0.63330  0.78660  0.02230  1.0000 0.0989452144
H   H3        1.0  0.63330  0.21340  0.97770  1.0000 0.0989452144
H   H4        1.0  0.36670  0.78660  0.97770  1.0000 0.0989452144
H   H5        1.0  0.02230  0.36670  0.21340  1.0000 0.0989452144
H   H6        1.0  0.02230  0.63330  0.78660  1.0000 0.0989452144
H   H7        1.0  0.97770  0.63330  0.21340  1.0000 0.0989452144
H   H8        1.0  0.97770  0.36670  0.78660  1.0000 0.0989452144
H   H9        1.0  0.21340  0.02230  0.36670  1.0000 0.0989452144
H   H10       1.0  0.78660  0.02230  0.63330  1.0000 0.0989452144
H   H11       1.0  0.21340  0.97770  0.63330  1.0000 0.0989452144
H   H12       1.0  0.78660  0.97770  0.36670  1.0000 0.0989452144
H   H13       1.0  0.86670  0.71340  0.52230  1.0000 0.0989452144
H   H14       1.0  0.13330  0.28660  0.52230  1.0000 0.0989452144
H   H15       1.0  0.13330  0.71340  0.47770  1.0000 0.0989452144
H   H16       1.0  0.86670  0.28660  0.47770  1.0000 0.0989452144
H   H17       1.0  0.52230  0.86670  0.71340  1.0000 0.0989452144
H   H18       1.0  0.52230  0.13330  0.28660  1.0000 0.0989452144
H   H19       1.0  0.47770  0.13330  0.71340  1.0000 0.0989452144
H   H20       1.0  0.47770  0.86670  0.28660  1.0000 0.0989452144
H   H21       1.0  0.71340  0.52230  0.86670  1.0000 0.0989452144
H   H22       1.0  0.28660  0.52230  0.13330  1.0000 0.0989452144
H   H23       1.0  0.71340  0.47770  0.13330  1.0000 0.0989452144
H   H24       1.0  0.28660  0.47770  0.86670  1.0000 0.0989452144
H   H25       1.0  0.14540  0.41900  0.05630  1.0000 0.2744490868
H   H26       1.0  0.85460  0.58100  0.05630  1.0000 0.2744490868
H   H27       1.0  0.85460  0.41900  0.94370  1.0000 0.2744490868
H   H28       1.0  0.14540  0.58100  0.94370  1.0000 0.2744490868
H   H29       1.0  0.05630  0.14540  0.41900  1.0000 0.2744490868
H   H30       1.0  0.05630  0.85460  0.58100  1.0000 0.2744490868
H   H31       1.0  0.94370  0.85460  0.41900  1.0000 0.2744490868
H   H32       1.0  0.94370  0.14540  0.58100  1.0000 0.2744490868
H   H33       1.0  0.41900  0.05630  0.14540  1.0000 0.2744490868
H   H34       1.0  0.58100  0.05630  0.85460  1.0000 0.2744490868
H   H35       1.0  0.41900  0.94370  0.85460  1.0000 0.2744490868
H   H36       1.0  0.58100  0.94370  0.14540  1.0000 0.2744490868
H   H37       1.0  0.64540  0.91900  0.55630  1.0000 0.2744490868
H   H38       1.0  0.35460  0.08100  0.55630  1.0000 0.2744490868
H   H39       1.0  0.35460  0.91900  0.44370  1.0000 0.2744490868
H   H40       1.0  0.64540  0.08100  0.44370  1.0000 0.2744490868
H   H41       1.0  0.55630  0.64540  0.91900  1.0000 0.2744490868
H   H42       1.0  0.55630  0.35460  0.08100  1.0000 0.2744490868
H   H43       1.0  0.44370  0.35460  0.91900  1.0000 0.2744490868
H   H44       1.0  0.44370  0.64540  0.08100  1.0000 0.2744490868
H   H45       1.0  0.91900  0.55630  0.64540  1.0000 0.2744490868
H   H46       1.0  0.08100  0.55630  0.35460  1.0000 0.2744490868
H   H47       1.0  0.91900  0.44370  0.35460  1.0000 0.2744490868
H   H48       1.0  0.08100  0.44370  0.64540  1.0000 0.2744490868
H   H49       1.0  0.15800  0.39310  0.96940  1.0000 0.2764171986
H   H50       1.0  0.84200  0.60690  0.96940  1.0000 0.2764171986
H   H51       1.0  0.84200  0.39310  0.03060  1.0000 0.2764171986
H   H52       1.0  0.15800  0.60690  0.03060  1.0000 0.2764171986
H   H53       1.0  0.96940  0.15800  0.39310  1.0000 0.2764171986
H   H54       1.0  0.96940  0.84200  0.60690  1.0000 0.2764171986
H   H55       1.0  0.03060  0.84200  0.39310  1.0000 0.2764171986
H   H56       1.0  0.03060  0.15800  0.60690  1.0000 0.2764171986
H   H57       1.0  0.39310  0.96940  0.15800  1.0000 0.2764171986
H   H58       1.0  0.60690  0.96940  0.84200  1.0000 0.2764171986
H   H59       1.0  0.39310  0.03060  0.84200  1.0000 0.2764171986
H   H60       1.0  0.60690  0.03060  0.15800  1.0000 0.2764171986
H   H61       1.0  0.65800  0.89310  0.46940  1.0000 0.2764171986
H   H62       1.0  0.34200  0.10690  0.46940  1.0000 0.2764171986
H   H63       1.0  0.34200  0.89310  0.53060  1.0000 0.2764171986
H   H64       1.0  0.65800  0.10690  0.53060  1.0000 0.2764171986
H   H65       1.0  0.46940  0.65800  0.89310  1.0000 0.2764171986
H   H66       1.0  0.46940  0.34200  0.10690  1.0000 0.2764171986
H   H67       1.0  0.53060  0.34200  0.89310  1.0000 0.2764171986
H   H68       1.0  0.53060  0.65800  0.10690  1.0000 0.2764171986
H   H69       1.0  0.89310  0.46940  0.65800  1.0000 0.2764171986
H   H70       1.0  0.10690  0.46940  0.34200  1.0000 0.2764171986
H   H71       1.0  0.89310  0.53060  0.34200  1.0000 0.2764171986
H   H72       1.0  0.10690  0.53060  0.65800  1.0000 0.2764171986
C   C1        1.0  0.23040  0.33870  0.04430  1.0000 0.4888771117
C   C2        1.0  0.76960  0.66130  0.04430  1.0000 0.4888771117
C   C3        1.0  0.76960  0.33870  0.95570  1.0000 0.4888771117
C   C4        1.0  0.23040  0.66130  0.95570  1.0000 0.4888771117
C   C5        1.0  0.04430  0.23040  0.33870  1.0000 0.4888771117
C   C6        1.0  0.04430  0.76960  0.66130  1.0000 0.4888771117
C   C7        1.0  0.95570  0.76960  0.33870  1.0000 0.4888771117
C   C8        1.0  0.95570  0.23040  0.66130  1.0000 0.4888771117
C   C9        1.0  0.33870  0.04430  0.23040  1.0000 0.4888771117
C   C10       1.0  0.66130  0.04430  0.76960  1.0000 0.4888771117
C   C11       1.0  0.33870  0.95570  0.76960  1.0000 0.4888771117
C   C12       1.0  0.66130  0.95570  0.23040  1.0000 0.4888771117
C   C13       1.0  0.73040  0.83870  0.54430  1.0000 0.4888771117
C   C14       1.0  0.26960  0.16130  0.54430  1.0000 0.4888771117
C   C15       1.0  0.26960  0.83870  0.45570  1.0000 0.4888771117
C   C16       1.0  0.73040  0.16130  0.45570  1.0000 0.4888771117
C   C17       1.0  0.54430  0.73040  0.83870  1.0000 0.4888771117
C   C18       1.0  0.54430  0.26960  0.16130  1.0000 0.4888771117
C   C19       1.0  0.45570  0.26960  0.83870  1.0000 0.4888771117
C   C20       1.0  0.45570  0.73040  0.16130  1.0000 0.4888771117
C   C21       1.0  0.83870  0.54430  0.73040  1.0000 0.4888771117
C   C22       1.0  0.16130  0.54430  0.26960  1.0000 0.4888771117
C   C23       1.0  0.83870  0.45570  0.26960  1.0000 0.4888771117
C   C24       1.0  0.16130  0.45570  0.73040  1.0000 0.4888771117
C   C25       1.0  0.32790  0.25090  0.04090  1.0000 0.1145880685
C   C26       1.0  0.67210  0.74910  0.04090  1.0000 0.1145880685
C   C27       1.0  0.67210  0.25090  0.95910  1.0000 0.1145880685
C   C28       1.0  0.32790  0.74910  0.95910  1.0000 0.1145880685
C   C29       1.0  0.04090  0.32790  0.25090  1.0000 0.1145880685
C   C30       1.0  0.04090  0.67210  0.74910  1.0000 0.1145880685
C   C31       1.0  0.95910  0.67210  0.25090  1.0000 0.1145880685
C   C32       1.0  0.95910  0.32790  0.74910  1.0000 0.1145880685
C   C33       1.0  0.25090  0.04090  0.32790  1.0000 0.1145880685
C   C34       1.0  0.74910  0.04090  0.67210  1.0000 0.1145880685
C   C35       1.0  0.25090  0.95910  0.67210  1.0000 0.1145880685
C   C36       1.0  0.74910  0.95910  0.32790  1.0000 0.1145880685
C   C37       1.0  0.82790  0.75090  0.54090  1.0000 0.1145880685
C   C38       1.0  0.17210  0.24910  0.54090  1.0000 0.1145880685
C   C39       1.0  0.17210  0.75090  0.45910  1.0000 0.1145880685
C   C40       1.0  0.82790  0.24910  0.45910  1.0000 0.1145880685
C   C41       1.0  0.54090  0.82790  0.75090  1.0000 0.1145880685
C   C42       1.0  0.54090  0.17210  0.24910  1.0000 0.1145880685
C   C43       1.0  0.45910  0.17210  0.75090  1.0000 0.1145880685
C   C44       1.0  0.45910  0.82790  0.24910  1.0000 0.1145880685
C   C45       1.0  0.75090  0.54090  0.82790  1.0000 0.1145880685
C   C46       1.0  0.24910  0.54090  0.17210  1.0000 0.1145880685
C   C47       1.0  0.75090  0.45910  0.17210  1.0000 0.1145880685
C   C48       1.0  0.24910  0.45910  0.82790  1.0000 0.1145880685
S   S1        1.0  0.32346  0.32346  0.32346  1.0000 -0.7435342827
S   S2        1.0  0.67654  0.67654  0.32346  1.0000 -0.7435342827
S   S3        1.0  0.67654  0.32346  0.67654  1.0000 -0.7435342827
S   S4        1.0  0.32346  0.67654  0.67654  1.0000 -0.7435342827
S   S5        1.0  0.82346  0.82346  0.82346  1.0000 -0.7435342827
S   S6        1.0  0.17654  0.17654  0.82346  1.0000 -0.7435342827
S   S7        1.0  0.17654  0.82346  0.17654  1.0000 -0.7435342827
S   S8        1.0  0.82346  0.17654  0.17654  1.0000 -0.7435342827
N   N1        1.0  0.25580  0.32790  0.12120  1.0000 -0.3297203713
N   N2        1.0  0.74420  0.67210  0.12120  1.0000 -0.3297203713
N   N3        1.0  0.74420  0.32790  0.87880  1.0000 -0.3297203713
N   N4        1.0  0.25580  0.67210  0.87880  1.0000 -0.3297203713
N   N5        1.0  0.12120  0.25580  0.32790  1.0000 -0.3297203713
N   N6        1.0  0.12120  0.74420  0.67210  1.0000 -0.3297203713
N   N7        1.0  0.87880  0.74420  0.32790  1.0000 -0.3297203713
N   N8        1.0  0.87880  0.25580  0.67210  1.0000 -0.3297203713
N   N9        1.0  0.32790  0.12120  0.25580  1.0000 -0.3297203713
N   N10       1.0  0.67210  0.12120  0.74420  1.0000 -0.3297203713
N   N11       1.0  0.32790  0.87880  0.74420  1.0000 -0.3297203713
N   N12       1.0  0.67210  0.87880  0.25580  1.0000 -0.3297203713
N   N13       1.0  0.75580  0.82790  0.62120  1.0000 -0.3297203713
N   N14       1.0  0.24420  0.17210  0.62120  1.0000 -0.3297203713
N   N15       1.0  0.24420  0.82790  0.37880  1.0000 -0.3297203713
N   N16       1.0  0.75580  0.17210  0.37880  1.0000 -0.3297203713
N   N17       1.0  0.62120  0.75580  0.82790  1.0000 -0.3297203713
N   N18       1.0  0.62120  0.24420  0.17210  1.0000 -0.3297203713
N   N19       1.0  0.37880  0.24420  0.82790  1.0000 -0.3297203713
N   N20       1.0  0.37880  0.75580  0.17210  1.0000 -0.3297203713
N   N21       1.0  0.82790  0.62120  0.75580  1.0000 -0.3297203713
N   N22       1.0  0.17210  0.62120  0.24420  1.0000 -0.3297203713
N   N23       1.0  0.82790  0.37880  0.24420  1.0000 -0.3297203713
N   N24       1.0  0.17210  0.37880  0.75580  1.0000 -0.3297203713
N   N25       1.0  0.31930  0.27090  0.11800  1.0000 -0.2213708041
N   N26       1.0  0.68070  0.72910  0.11800  1.0000 -0.2213708041
N   N27       1.0  0.68070  0.27090  0.88200  1.0000 -0.2213708041
N   N28       1.0  0.31930  0.72910  0.88200  1.0000 -0.2213708041
N   N29       1.0  0.11800  0.31930  0.27090  1.0000 -0.2213708041
N   N30       1.0  0.11800  0.68070  0.72910  1.0000 -0.2213708041
N   N31       1.0  0.88200  0.68070  0.27090  1.0000 -0.2213708041
N   N32       1.0  0.88200  0.31930  0.72910  1.0000 -0.2213708041
N   N33       1.0  0.27090  0.11800  0.31930  1.0000 -0.2213708041
N   N34       1.0  0.72910  0.11800  0.68070  1.0000 -0.2213708041
N   N35       1.0  0.27090  0.88200  0.68070  1.0000 -0.2213708041
N   N36       1.0  0.72910  0.88200  0.31930  1.0000 -0.2213708041
N   N37       1.0  0.81930  0.77090  0.61800  1.0000 -0.2213708041
N   N38       1.0  0.18070  0.22910  0.61800  1.0000 -0.2213708041
N   N39       1.0  0.18070  0.77090  0.38200  1.0000 -0.2213708041
N   N40       1.0  0.81930  0.22910  0.38200  1.0000 -0.2213708041
N   N41       1.0  0.61800  0.81930  0.77090  1.0000 -0.2213708041
N   N42       1.0  0.61800  0.18070  0.22910  1.0000 -0.2213708041
N   N43       1.0  0.38200  0.18070  0.77090  1.0000 -0.2213708041
N   N44       1.0  0.38200  0.81930  0.22910  1.0000 -0.2213708041
N   N45       1.0  0.77090  0.61800  0.81930  1.0000 -0.2213708041
N   N46       1.0  0.22910  0.61800  0.18070  1.0000 -0.2213708041
N   N47       1.0  0.77090  0.38200  0.18070  1.0000 -0.2213708041
N   N48       1.0  0.22910  0.38200  0.81930  1.0000 -0.2213708041
N   N49       1.0  0.27480  0.29030  0.99090  1.0000 -0.4406505584
N   N50       1.0  0.72520  0.70970  0.99090  1.0000 -0.4406505584
N   N51       1.0  0.72520  0.29030  0.00910  1.0000 -0.4406505584
N   N52       1.0  0.27480  0.70970  0.00910  1.0000 -0.4406505584
N   N53       1.0  0.99090  0.27480  0.29030  1.0000 -0.4406505584
N   N54       1.0  0.99090  0.72520  0.70970  1.0000 -0.4406505584
N   N55       1.0  0.00910  0.72520  0.29030  1.0000 -0.4406505584
N   N56       1.0  0.00910  0.27480  0.70970  1.0000 -0.4406505584
N   N57       1.0  0.29030  0.99090  0.27480  1.0000 -0.4406505584
N   N58       1.0  0.70970  0.99090  0.72520  1.0000 -0.4406505584
N   N59       1.0  0.29030  0.00910  0.72520  1.0000 -0.4406505584
N   N60       1.0  0.70970  0.00910  0.27480  1.0000 -0.4406505584
N   N61       1.0  0.77480  0.79030  0.49090  1.0000 -0.4406505584
N   N62       1.0  0.22520  0.20970  0.49090  1.0000 -0.4406505584
N   N63       1.0  0.22520  0.79030  0.50910  1.0000 -0.4406505584
N   N64       1.0  0.77480  0.20970  0.50910  1.0000 -0.4406505584
N   N65       1.0  0.49090  0.77480  0.79030  1.0000 -0.4406505584
N   N66       1.0  0.49090  0.22520  0.20970  1.0000 -0.4406505584
N   N67       1.0  0.50910  0.22520  0.79030  1.0000 -0.4406505584
N   N68       1.0  0.50910  0.77480  0.20970  1.0000 -0.4406505584
N   N69       1.0  0.79030  0.49090  0.77480  1.0000 -0.4406505584
N   N70       1.0  0.20970  0.49090  0.22520  1.0000 -0.4406505584
N   N71       1.0  0.79030  0.50910  0.22520  1.0000 -0.4406505584
N   N72       1.0  0.20970  0.50910  0.77480  1.0000 -0.4406505584
N   N73       1.0  0.17090  0.38960  0.02050  1.0000 -0.6279920498
N   N74       1.0  0.82910  0.61040  0.02050  1.0000 -0.6279920498
N   N75       1.0  0.82910  0.38960  0.97950  1.0000 -0.6279920498
N   N76       1.0  0.17090  0.61040  0.97950  1.0000 -0.6279920498
N   N77       1.0  0.02050  0.17090  0.38960  1.0000 -0.6279920498
N   N78       1.0  0.02050  0.82910  0.61040  1.0000 -0.6279920498
N   N79       1.0  0.97950  0.82910  0.38960  1.0000 -0.6279920498
N   N80       1.0  0.97950  0.17090  0.61040  1.0000 -0.6279920498
N   N81       1.0  0.38960  0.02050  0.17090  1.0000 -0.6279920498
N   N82       1.0  0.61040  0.02050  0.82910  1.0000 -0.6279920498
N   N83       1.0  0.38960  0.97950  0.82910  1.0000 -0.6279920498
N   N84       1.0  0.61040  0.97950  0.17090  1.0000 -0.6279920498
N   N85       1.0  0.67090  0.88960  0.52050  1.0000 -0.6279920498
N   N86       1.0  0.32910  0.11040  0.52050  1.0000 -0.6279920498
N   N87       1.0  0.32910  0.88960  0.47950  1.0000 -0.6279920498
N   N88       1.0  0.67090  0.11040  0.47950  1.0000 -0.6279920498
N   N89       1.0  0.52050  0.67090  0.88960  1.0000 -0.6279920498
N   N90       1.0  0.52050  0.32910  0.11040  1.0000 -0.6279920498
N   N91       1.0  0.47950  0.32910  0.88960  1.0000 -0.6279920498
N   N92       1.0  0.47950  0.67090  0.11040  1.0000 -0.6279920498
N   N93       1.0  0.88960  0.52050  0.67090  1.0000 -0.6279920498
N   N94       1.0  0.11040  0.52050  0.32910  1.0000 -0.6279920498
N   N95       1.0  0.88960  0.47950  0.32910  1.0000 -0.6279920498
N   N96       1.0  0.11040  0.47950  0.67090  1.0000 -0.6279920498
