# DDEC6 charges by PACMAN v1.1 (https://github.com/mtap-research/PACMAN-charge/)
data_d0dt02856h2_ASR_pacman
_symmetry_space_group_name_H-M   'P 1'
_cell_length_a   16.99300000
_cell_length_b   16.99300000
_cell_length_c   16.99300000
_cell_angle_alpha   90.00000000
_cell_angle_beta   90.00000000
_cell_angle_gamma   90.00000000
_symmetry_Int_Tables_number   1
_chemical_formula_structural   ZnH10(C2N)4
_chemical_formula_sum   'Zn12 H120 C96 N48'
_cell_volume   4906.93349866
_cell_formula_units_Z   12
loop_
 _symmetry_equiv_pos_site_id
 _symmetry_equiv_pos_as_xyz
  1  'x, y, z'
loop_
 _atom_site_type_symbol
 _atom_site_label
 _atom_site_symmetry_multiplicity
 _atom_site_fract_x
 _atom_site_fract_y
 _atom_site_fract_z
 _atom_site_occupancy
 _atom_site_charge
Zn  Zn1  1  0.50000000  0.25000000  0.00000000  1.0 0.6373539313
Zn  Zn2  1  0.50000000  0.75000000  0.00000000  1.0 0.6373539313
Zn  Zn3  1  0.00000000  0.25000000  0.50000000  1.0 0.634454061
Zn  Zn4  1  0.00000000  0.50000000  0.25000000  1.0 0.634454061
Zn  Zn5  1  0.00000000  0.50000000  0.75000000  1.0 0.6373539313
Zn  Zn6  1  0.50000000  0.00000000  0.25000000  1.0 0.634454061
Zn  Zn7  1  0.25000000  0.00000000  0.50000000  1.0 0.634454061
Zn  Zn8  1  0.75000000  0.00000000  0.50000000  1.0 0.6373539313
Zn  Zn9  1  0.25000000  0.50000000  0.00000000  1.0 0.6373539313
Zn  Zn10  1  0.75000000  0.50000000  0.00000000  1.0 0.6373539313
Zn  Zn11  1  0.50000000  0.00000000  0.75000000  1.0 0.6373539313
Zn  Zn12  1  0.00000000  0.75000000  0.50000000  1.0 0.6373539313
H  H4  1  0.62110000  0.27800000  0.85800000  1.0 0.1208824875
H  H8  1  0.12110000  0.77800000  0.35800000  1.0 0.1208824875
H  H12  1  0.37890000  0.72200000  0.85800000  1.0 0.1208824875
H  H16  1  0.87890000  0.22200000  0.35800000  1.0 0.1208824875
H  H20  1  0.37890000  0.27800000  0.14200000  1.0 0.1208824875
H  H24  1  0.87890000  0.77800000  0.64200000  1.0 0.1208824875
H  H28  1  0.62110000  0.72200000  0.14200000  1.0 0.1208824875
H  H32  1  0.12110000  0.22200000  0.64200000  1.0 0.1208824875
H  H36  1  0.85800000  0.62110000  0.27800000  1.0 0.1208824875
H  H40  1  0.35800000  0.12110000  0.77800000  1.0 0.1208824875
H  H44  1  0.85800000  0.37890000  0.72200000  1.0 0.1208824875
H  H48  1  0.35800000  0.87890000  0.22200000  1.0 0.1208824875
H  H52  1  0.14200000  0.37890000  0.27800000  1.0 0.1208824875
H  H56  1  0.64200000  0.87890000  0.77800000  1.0 0.1208824875
H  H60  1  0.14200000  0.62110000  0.72200000  1.0 0.1208824875
H  H64  1  0.64200000  0.12110000  0.22200000  1.0 0.1208824875
H  H68  1  0.27800000  0.85800000  0.62110000  1.0 0.1208824875
H  H72  1  0.77800000  0.35800000  0.12110000  1.0 0.1208824875
H  H76  1  0.72200000  0.85800000  0.37890000  1.0 0.1208824875
H  H80  1  0.22200000  0.35800000  0.87890000  1.0 0.1208824875
H  H84  1  0.27800000  0.14200000  0.37890000  1.0 0.1208824875
H  H88  1  0.77800000  0.64200000  0.87890000  1.0 0.1208824875
H  H92  1  0.72200000  0.14200000  0.62110000  1.0 0.1208824875
H  H96  1  0.22200000  0.64200000  0.12110000  1.0 0.1208824875
H  H100  1  0.27800000  0.62110000  0.85800000  1.0 0.1208824875
H  H104  1  0.77800000  0.12110000  0.35800000  1.0 0.1208824875
H  H108  1  0.72200000  0.37890000  0.85800000  1.0 0.1208824875
H  H112  1  0.22200000  0.87890000  0.35800000  1.0 0.1208824875
H  H116  1  0.27800000  0.37890000  0.14200000  1.0 0.1208824875
H  H120  1  0.77800000  0.87890000  0.64200000  1.0 0.1208824875
H  H124  1  0.72200000  0.62110000  0.14200000  1.0 0.1208824875
H  H128  1  0.22200000  0.12110000  0.64200000  1.0 0.1208824875
H  H132  1  0.62110000  0.85800000  0.27800000  1.0 0.1208824875
H  H136  1  0.12110000  0.35800000  0.77800000  1.0 0.1208824875
H  H140  1  0.37890000  0.85800000  0.72200000  1.0 0.1208824875
H  H144  1  0.87890000  0.35800000  0.22200000  1.0 0.1208824875
H  H148  1  0.37890000  0.14200000  0.27800000  1.0 0.1208824875
H  H152  1  0.87890000  0.64200000  0.77800000  1.0 0.1208824875
H  H156  1  0.62110000  0.14200000  0.72200000  1.0 0.1208824875
H  H160  1  0.12110000  0.64200000  0.22200000  1.0 0.1208824875
H  H164  1  0.85800000  0.27800000  0.62110000  1.0 0.1208824875
H  H168  1  0.35800000  0.77800000  0.12110000  1.0 0.1208824875
H  H172  1  0.85800000  0.72200000  0.37890000  1.0 0.1208824875
H  H176  1  0.35800000  0.22200000  0.87890000  1.0 0.1208824875
H  H180  1  0.14200000  0.27800000  0.37890000  1.0 0.1208824875
H  H184  1  0.64200000  0.77800000  0.87890000  1.0 0.1208824875
H  H188  1  0.14200000  0.72200000  0.62110000  1.0 0.1208824875
H  H192  1  0.64200000  0.22200000  0.12110000  1.0 0.1208824875
H  H1  1  0.56740000  0.45330000  0.07940000  0.5 0.0687346915
H  H2  1  0.63980000  0.41260000  0.11960000  0.5 0.0687346915
H  H3  1  0.56100000  0.36590000  0.10820000  0.5 0.0687346915
H  H5  1  0.06740000  0.95330000  0.57940000  0.5 0.0687346915
H  H6  1  0.13980000  0.91260000  0.61960000  0.5 0.0687346915
H  H7  1  0.06100000  0.86590000  0.60820000  0.5 0.0687346915
H  H9  1  0.43260000  0.54670000  0.07940000  0.5 0.0687346915
H  H10  1  0.36020000  0.58740000  0.11960000  0.5 0.0687346915
H  H11  1  0.43900000  0.63410000  0.10820000  0.5 0.0687346915
H  H13  1  0.93260000  0.04670000  0.57940000  0.5 0.0687346915
H  H14  1  0.86020000  0.08740000  0.61960000  0.5 0.0687346915
H  H15  1  0.93900000  0.13410000  0.60820000  0.5 0.0687346915
H  H17  1  0.43260000  0.45330000  0.92060000  0.5 0.0687346915
H  H18  1  0.36020000  0.41260000  0.88040000  0.5 0.0687346915
H  H19  1  0.43900000  0.36590000  0.89180000  0.5 0.0687346915
H  H21  1  0.93260000  0.95330000  0.42060000  0.5 0.0687346915
H  H22  1  0.86020000  0.91260000  0.38040000  0.5 0.0687346915
H  H23  1  0.93900000  0.86590000  0.39180000  0.5 0.0687346915
H  H25  1  0.56740000  0.54670000  0.92060000  0.5 0.0687346915
H  H26  1  0.63980000  0.58740000  0.88040000  0.5 0.0687346915
H  H27  1  0.56100000  0.63410000  0.89180000  0.5 0.0687346915
H  H29  1  0.06740000  0.04670000  0.42060000  0.5 0.0687346915
H  H30  1  0.13980000  0.08740000  0.38040000  0.5 0.0687346915
H  H31  1  0.06100000  0.13410000  0.39180000  0.5 0.0687346915
H  H33  1  0.07940000  0.56740000  0.45330000  0.5 0.0687346915
H  H34  1  0.11960000  0.63980000  0.41260000  0.5 0.0687346915
H  H35  1  0.10820000  0.56100000  0.36590000  0.5 0.0687346915
H  H37  1  0.57940000  0.06740000  0.95330000  0.5 0.0687346915
H  H38  1  0.61960000  0.13980000  0.91260000  0.5 0.0687346915
H  H39  1  0.60820000  0.06100000  0.86590000  0.5 0.0687346915
H  H41  1  0.07940000  0.43260000  0.54670000  0.5 0.0687346915
H  H42  1  0.11960000  0.36020000  0.58740000  0.5 0.0687346915
H  H43  1  0.10820000  0.43900000  0.63410000  0.5 0.0687346915
H  H45  1  0.57940000  0.93260000  0.04670000  0.5 0.0687346915
H  H46  1  0.61960000  0.86020000  0.08740000  0.5 0.0687346915
H  H47  1  0.60820000  0.93900000  0.13410000  0.5 0.0687346915
H  H49  1  0.92060000  0.43260000  0.45330000  0.5 0.0687346915
H  H50  1  0.88040000  0.36020000  0.41260000  0.5 0.0687346915
H  H51  1  0.89180000  0.43900000  0.36590000  0.5 0.0687346915
H  H53  1  0.42060000  0.93260000  0.95330000  0.5 0.0687346915
H  H54  1  0.38040000  0.86020000  0.91260000  0.5 0.0687346915
H  H55  1  0.39180000  0.93900000  0.86590000  0.5 0.0687346915
H  H57  1  0.92060000  0.56740000  0.54670000  0.5 0.0687346915
H  H58  1  0.88040000  0.63980000  0.58740000  0.5 0.0687346915
H  H59  1  0.89180000  0.56100000  0.63410000  0.5 0.0687346915
H  H61  1  0.42060000  0.06740000  0.04670000  0.5 0.0687346915
H  H62  1  0.38040000  0.13980000  0.08740000  0.5 0.0687346915
H  H63  1  0.39180000  0.06100000  0.13410000  0.5 0.0687346915
H  H65  1  0.45330000  0.07940000  0.56740000  0.5 0.0687346915
H  H66  1  0.41260000  0.11960000  0.63980000  0.5 0.0687346915
H  H67  1  0.36590000  0.10820000  0.56100000  0.5 0.0687346915
H  H69  1  0.95330000  0.57940000  0.06740000  0.5 0.0687346915
H  H70  1  0.91260000  0.61960000  0.13980000  0.5 0.0687346915
H  H71  1  0.86590000  0.60820000  0.06100000  0.5 0.0687346915
H  H73  1  0.54670000  0.07940000  0.43260000  0.5 0.0687346915
H  H74  1  0.58740000  0.11960000  0.36020000  0.5 0.0687346915
H  H75  1  0.63410000  0.10820000  0.43900000  0.5 0.0687346915
H  H77  1  0.04670000  0.57940000  0.93260000  0.5 0.0687346915
H  H78  1  0.08740000  0.61960000  0.86020000  0.5 0.0687346915
H  H79  1  0.13410000  0.60820000  0.93900000  0.5 0.0687346915
H  H81  1  0.45330000  0.92060000  0.43260000  0.5 0.0687346915
H  H82  1  0.41260000  0.88040000  0.36020000  0.5 0.0687346915
H  H83  1  0.36590000  0.89180000  0.43900000  0.5 0.0687346915
H  H85  1  0.95330000  0.42060000  0.93260000  0.5 0.0687346915
H  H86  1  0.91260000  0.38040000  0.86020000  0.5 0.0687346915
H  H87  1  0.86590000  0.39180000  0.93900000  0.5 0.0687346915
H  H89  1  0.54670000  0.92060000  0.56740000  0.5 0.0687346915
H  H90  1  0.58740000  0.88040000  0.63980000  0.5 0.0687346915
H  H91  1  0.63410000  0.89180000  0.56100000  0.5 0.0687346915
H  H93  1  0.04670000  0.42060000  0.06740000  0.5 0.0687346915
H  H94  1  0.08740000  0.38040000  0.13980000  0.5 0.0687346915
H  H95  1  0.13410000  0.39180000  0.06100000  0.5 0.0687346915
H  H97  1  0.45330000  0.56740000  0.07940000  0.5 0.0687346915
H  H98  1  0.41260000  0.63980000  0.11960000  0.5 0.0687346915
H  H99  1  0.36590000  0.56100000  0.10820000  0.5 0.0687346915
H  H101  1  0.95330000  0.06740000  0.57940000  0.5 0.0687346915
H  H102  1  0.91260000  0.13980000  0.61960000  0.5 0.0687346915
H  H103  1  0.86590000  0.06100000  0.60820000  0.5 0.0687346915
H  H105  1  0.54670000  0.43260000  0.07940000  0.5 0.0687346915
H  H106  1  0.58740000  0.36020000  0.11960000  0.5 0.0687346915
H  H107  1  0.63410000  0.43900000  0.10820000  0.5 0.0687346915
H  H109  1  0.04670000  0.93260000  0.57940000  0.5 0.0687346915
H  H110  1  0.08740000  0.86020000  0.61960000  0.5 0.0687346915
H  H111  1  0.13410000  0.93900000  0.60820000  0.5 0.0687346915
H  H113  1  0.45330000  0.43260000  0.92060000  0.5 0.0687346915
H  H114  1  0.41260000  0.36020000  0.88040000  0.5 0.0687346915
H  H115  1  0.36590000  0.43900000  0.89180000  0.5 0.0687346915
H  H117  1  0.95330000  0.93260000  0.42060000  0.5 0.0687346915
H  H118  1  0.91260000  0.86020000  0.38040000  0.5 0.0687346915
H  H119  1  0.86590000  0.93900000  0.39180000  0.5 0.0687346915
H  H121  1  0.54670000  0.56740000  0.92060000  0.5 0.0687346915
H  H122  1  0.58740000  0.63980000  0.88040000  0.5 0.0687346915
H  H123  1  0.63410000  0.56100000  0.89180000  0.5 0.0687346915
H  H125  1  0.04670000  0.06740000  0.42060000  0.5 0.0687346915
H  H126  1  0.08740000  0.13980000  0.38040000  0.5 0.0687346915
H  H127  1  0.13410000  0.06100000  0.39180000  0.5 0.0687346915
H  H129  1  0.56740000  0.07940000  0.45330000  0.5 0.0687346915
H  H130  1  0.63980000  0.11960000  0.41260000  0.5 0.0687346915
H  H131  1  0.56100000  0.10820000  0.36590000  0.5 0.0687346915
H  H133  1  0.06740000  0.57940000  0.95330000  0.5 0.0687346915
H  H134  1  0.13980000  0.61960000  0.91260000  0.5 0.0687346915
H  H135  1  0.06100000  0.60820000  0.86590000  0.5 0.0687346915
H  H137  1  0.43260000  0.07940000  0.54670000  0.5 0.0687346915
H  H138  1  0.36020000  0.11960000  0.58740000  0.5 0.0687346915
H  H139  1  0.43900000  0.10820000  0.63410000  0.5 0.0687346915
H  H141  1  0.93260000  0.57940000  0.04670000  0.5 0.0687346915
H  H142  1  0.86020000  0.61960000  0.08740000  0.5 0.0687346915
H  H143  1  0.93900000  0.60820000  0.13410000  0.5 0.0687346915
H  H145  1  0.43260000  0.92060000  0.45330000  0.5 0.0687346915
H  H146  1  0.36020000  0.88040000  0.41260000  0.5 0.0687346915
H  H147  1  0.43900000  0.89180000  0.36590000  0.5 0.0687346915
H  H149  1  0.93260000  0.42060000  0.95330000  0.5 0.0687346915
H  H150  1  0.86020000  0.38040000  0.91260000  0.5 0.0687346915
H  H151  1  0.93900000  0.39180000  0.86590000  0.5 0.0687346915
H  H153  1  0.56740000  0.92060000  0.54670000  0.5 0.0687346915
H  H154  1  0.63980000  0.88040000  0.58740000  0.5 0.0687346915
H  H155  1  0.56100000  0.89180000  0.63410000  0.5 0.0687346915
H  H157  1  0.06740000  0.42060000  0.04670000  0.5 0.0687346915
H  H158  1  0.13980000  0.38040000  0.08740000  0.5 0.0687346915
H  H159  1  0.06100000  0.39180000  0.13410000  0.5 0.0687346915
H  H161  1  0.07940000  0.45330000  0.56740000  0.5 0.0687346915
H  H162  1  0.11960000  0.41260000  0.63980000  0.5 0.0687346915
H  H163  1  0.10820000  0.36590000  0.56100000  0.5 0.0687346915
H  H165  1  0.57940000  0.95330000  0.06740000  0.5 0.0687346915
H  H166  1  0.61960000  0.91260000  0.13980000  0.5 0.0687346915
H  H167  1  0.60820000  0.86590000  0.06100000  0.5 0.0687346915
H  H169  1  0.07940000  0.54670000  0.43260000  0.5 0.0687346915
H  H170  1  0.11960000  0.58740000  0.36020000  0.5 0.0687346915
H  H171  1  0.10820000  0.63410000  0.43900000  0.5 0.0687346915
H  H173  1  0.57940000  0.04670000  0.93260000  0.5 0.0687346915
H  H174  1  0.61960000  0.08740000  0.86020000  0.5 0.0687346915
H  H175  1  0.60820000  0.13410000  0.93900000  0.5 0.0687346915
H  H177  1  0.92060000  0.45330000  0.43260000  0.5 0.0687346915
H  H178  1  0.88040000  0.41260000  0.36020000  0.5 0.0687346915
H  H179  1  0.89180000  0.36590000  0.43900000  0.5 0.0687346915
H  H181  1  0.42060000  0.95330000  0.93260000  0.5 0.0687346915
H  H182  1  0.38040000  0.91260000  0.86020000  0.5 0.0687346915
H  H183  1  0.39180000  0.86590000  0.93900000  0.5 0.0687346915
H  H185  1  0.92060000  0.54670000  0.56740000  0.5 0.0687346915
H  H186  1  0.88040000  0.58740000  0.63980000  0.5 0.0687346915
H  H187  1  0.89180000  0.63410000  0.56100000  0.5 0.0687346915
H  H189  1  0.42060000  0.04670000  0.06740000  0.5 0.0687346915
H  H190  1  0.38040000  0.08740000  0.13980000  0.5 0.0687346915
H  H191  1  0.39180000  0.13410000  0.06100000  0.5 0.0687346915
C  C1  1  0.63040000  0.31350000  0.89860000  1.0 -0.0729813434
C  C2  1  0.13040000  0.81350000  0.39860000  1.0 -0.0729813434
C  C3  1  0.36960000  0.68650000  0.89860000  1.0 -0.0729813434
C  C4  1  0.86960000  0.18650000  0.39860000  1.0 -0.0729813434
C  C5  1  0.36960000  0.31350000  0.10140000  1.0 -0.0729813434
C  C6  1  0.86960000  0.81350000  0.60140000  1.0 -0.0729813434
C  C7  1  0.63040000  0.68650000  0.10140000  1.0 -0.0729813434
C  C8  1  0.13040000  0.18650000  0.60140000  1.0 -0.0729813434
C  C9  1  0.89860000  0.63040000  0.31350000  1.0 -0.0729813434
C  C10  1  0.39860000  0.13040000  0.81350000  1.0 -0.0729813434
C  C11  1  0.89860000  0.36960000  0.68650000  1.0 -0.0729813434
C  C12  1  0.39860000  0.86960000  0.18650000  1.0 -0.0729813434
C  C13  1  0.10140000  0.36960000  0.31350000  1.0 -0.0729813434
C  C14  1  0.60140000  0.86960000  0.81350000  1.0 -0.0729813434
C  C15  1  0.10140000  0.63040000  0.68650000  1.0 -0.0729813434
C  C16  1  0.60140000  0.13040000  0.18650000  1.0 -0.0729813434
C  C17  1  0.31350000  0.89860000  0.63040000  1.0 -0.0729813434
C  C18  1  0.81350000  0.39860000  0.13040000  1.0 -0.0729813434
C  C19  1  0.68650000  0.89860000  0.36960000  1.0 -0.0729813434
C  C20  1  0.18650000  0.39860000  0.86960000  1.0 -0.0729813434
C  C21  1  0.31350000  0.10140000  0.36960000  1.0 -0.0729813434
C  C22  1  0.81350000  0.60140000  0.86960000  1.0 -0.0729813434
C  C23  1  0.68650000  0.10140000  0.63040000  1.0 -0.0729813434
C  C24  1  0.18650000  0.60140000  0.13040000  1.0 -0.0729813434
C  C25  1  0.31350000  0.63040000  0.89860000  1.0 -0.0729813434
C  C26  1  0.81350000  0.13040000  0.39860000  1.0 -0.0729813434
C  C27  1  0.68650000  0.36960000  0.89860000  1.0 -0.0729813434
C  C28  1  0.18650000  0.86960000  0.39860000  1.0 -0.0729813434
C  C29  1  0.31350000  0.36960000  0.10140000  1.0 -0.0729813434
C  C30  1  0.81350000  0.86960000  0.60140000  1.0 -0.0729813434
C  C31  1  0.68650000  0.63040000  0.10140000  1.0 -0.0729813434
C  C32  1  0.18650000  0.13040000  0.60140000  1.0 -0.0729813434
C  C33  1  0.63040000  0.89860000  0.31350000  1.0 -0.0729813434
C  C34  1  0.13040000  0.39860000  0.81350000  1.0 -0.0729813434
C  C35  1  0.36960000  0.89860000  0.68650000  1.0 -0.0729813434
C  C36  1  0.86960000  0.39860000  0.18650000  1.0 -0.0729813434
C  C37  1  0.36960000  0.10140000  0.31350000  1.0 -0.0729813434
C  C38  1  0.86960000  0.60140000  0.81350000  1.0 -0.0729813434
C  C39  1  0.63040000  0.10140000  0.68650000  1.0 -0.0729813434
C  C40  1  0.13040000  0.60140000  0.18650000  1.0 -0.0729813434
C  C41  1  0.89860000  0.31350000  0.63040000  1.0 -0.0729813434
C  C42  1  0.39860000  0.81350000  0.13040000  1.0 -0.0729813434
C  C43  1  0.89860000  0.68650000  0.36960000  1.0 -0.0729813434
C  C44  1  0.39860000  0.18650000  0.86960000  1.0 -0.0729813434
C  C45  1  0.10140000  0.31350000  0.36960000  1.0 -0.0729813434
C  C46  1  0.60140000  0.81350000  0.86960000  1.0 -0.0729813434
C  C47  1  0.10140000  0.68650000  0.63040000  1.0 -0.0729813434
C  C48  1  0.60140000  0.18650000  0.13040000  1.0 -0.0729813434
C  C49  1  0.62340000  0.37660000  0.00680000  1.0 0.2612813606
C  C50  1  0.59540000  0.40460000  0.08560000  1.0 -0.4040187763
C  C51  1  0.12340000  0.87660000  0.50680000  1.0 0.2612813606
C  C52  1  0.09540000  0.90460000  0.58560000  1.0 -0.4040187763
C  C53  1  0.37660000  0.62340000  0.00680000  1.0 0.2612813606
C  C54  1  0.40460000  0.59540000  0.08560000  1.0 -0.4040187763
C  C55  1  0.87660000  0.12340000  0.50680000  1.0 0.2612813606
C  C56  1  0.90460000  0.09540000  0.58560000  1.0 -0.4040187763
C  C57  1  0.37660000  0.37660000  0.99320000  1.0 0.2612813606
C  C58  1  0.40460000  0.40460000  0.91440000  1.0 -0.4040187763
C  C59  1  0.87660000  0.87660000  0.49320000  1.0 0.2612813606
C  C60  1  0.90460000  0.90460000  0.41440000  1.0 -0.4050541924
C  C61  1  0.62340000  0.62340000  0.99320000  1.0 0.2612813606
C  C62  1  0.59540000  0.59540000  0.91440000  1.0 -0.4040187763
C  C63  1  0.12340000  0.12340000  0.49320000  1.0 0.2612813606
C  C64  1  0.09540000  0.09540000  0.41440000  1.0 -0.4040187763
C  C65  1  0.00680000  0.62340000  0.37660000  1.0 0.2612813606
C  C66  1  0.08560000  0.59540000  0.40460000  1.0 -0.4040187763
C  C67  1  0.50680000  0.12340000  0.87660000  1.0 0.2612813606
C  C68  1  0.58560000  0.09540000  0.90460000  1.0 -0.4040187763
C  C69  1  0.00680000  0.37660000  0.62340000  1.0 0.2612813606
C  C70  1  0.08560000  0.40460000  0.59540000  1.0 -0.4040187763
C  C71  1  0.50680000  0.87660000  0.12340000  1.0 0.2612813606
C  C72  1  0.58560000  0.90460000  0.09540000  1.0 -0.4050541924
C  C73  1  0.99320000  0.37660000  0.37660000  1.0 0.2612813606
C  C74  1  0.91440000  0.40460000  0.40460000  1.0 -0.4040187763
C  C75  1  0.49320000  0.87660000  0.87660000  1.0 0.2612813606
C  C76  1  0.41440000  0.90460000  0.90460000  1.0 -0.4050541924
C  C77  1  0.99320000  0.62340000  0.62340000  1.0 0.2612813606
C  C78  1  0.91440000  0.59540000  0.59540000  1.0 -0.4040187763
C  C79  1  0.49320000  0.12340000  0.12340000  1.0 0.2612813606
C  C80  1  0.41440000  0.09540000  0.09540000  1.0 -0.4040187763
C  C81  1  0.37660000  0.00680000  0.62340000  1.0 0.2612813606
C  C82  1  0.40460000  0.08560000  0.59540000  1.0 -0.4040187763
C  C83  1  0.87660000  0.50680000  0.12340000  1.0 0.2612813606
C  C84  1  0.90460000  0.58560000  0.09540000  1.0 -0.4040187763
C  C85  1  0.62340000  0.00680000  0.37660000  1.0 0.2612813606
C  C86  1  0.59540000  0.08560000  0.40460000  1.0 -0.4040187763
C  C87  1  0.12340000  0.50680000  0.87660000  1.0 0.2612813606
C  C88  1  0.09540000  0.58560000  0.90460000  1.0 -0.4040187763
C  C89  1  0.37660000  0.99320000  0.37660000  1.0 0.2612813606
C  C90  1  0.40460000  0.91440000  0.40460000  1.0 -0.4040187763
C  C91  1  0.87660000  0.49320000  0.87660000  1.0 0.2612813606
C  C92  1  0.90460000  0.41440000  0.90460000  1.0 -0.4050541924
C  C93  1  0.62340000  0.99320000  0.62340000  1.0 0.2612813606
C  C94  1  0.59540000  0.91440000  0.59540000  1.0 -0.4040187763
C  C95  1  0.12340000  0.49320000  0.12340000  1.0 0.2612813606
C  C96  1  0.09540000  0.41440000  0.09540000  1.0 -0.4040187763
N  N1  1  0.58950000  0.31690000  0.96730000  1.0 -0.341747053
N  N2  1  0.08950000  0.81690000  0.46730000  1.0 -0.341747053
N  N3  1  0.41050000  0.68310000  0.96730000  1.0 -0.341747053
N  N4  1  0.91050000  0.18310000  0.46730000  1.0 -0.341747053
N  N5  1  0.41050000  0.31690000  0.03270000  1.0 -0.341747053
N  N6  1  0.91050000  0.81690000  0.53270000  1.0 -0.341747053
N  N7  1  0.58950000  0.68310000  0.03270000  1.0 -0.341747053
N  N8  1  0.08950000  0.18310000  0.53270000  1.0 -0.341747053
N  N9  1  0.96730000  0.58950000  0.31690000  1.0 -0.341747053
N  N10  1  0.46730000  0.08950000  0.81690000  1.0 -0.341747053
N  N11  1  0.96730000  0.41050000  0.68310000  1.0 -0.341747053
N  N12  1  0.46730000  0.91050000  0.18310000  1.0 -0.341747053
N  N13  1  0.03270000  0.41050000  0.31690000  1.0 -0.341747053
N  N14  1  0.53270000  0.91050000  0.81690000  1.0 -0.341747053
N  N15  1  0.03270000  0.58950000  0.68310000  1.0 -0.341747053
N  N16  1  0.53270000  0.08950000  0.18310000  1.0 -0.341747053
N  N17  1  0.31690000  0.96730000  0.58950000  1.0 -0.341747053
N  N18  1  0.81690000  0.46730000  0.08950000  1.0 -0.341747053
N  N19  1  0.68310000  0.96730000  0.41050000  1.0 -0.341747053
N  N20  1  0.18310000  0.46730000  0.91050000  1.0 -0.341747053
N  N21  1  0.31690000  0.03270000  0.41050000  1.0 -0.341747053
N  N22  1  0.81690000  0.53270000  0.91050000  1.0 -0.341747053
N  N23  1  0.68310000  0.03270000  0.58950000  1.0 -0.341747053
N  N24  1  0.18310000  0.53270000  0.08950000  1.0 -0.341747053
N  N25  1  0.31690000  0.58950000  0.96730000  1.0 -0.341747053
N  N26  1  0.81690000  0.08950000  0.46730000  1.0 -0.341747053
N  N27  1  0.68310000  0.41050000  0.96730000  1.0 -0.341747053
N  N28  1  0.18310000  0.91050000  0.46730000  1.0 -0.341747053
N  N29  1  0.31690000  0.41050000  0.03270000  1.0 -0.341747053
N  N30  1  0.81690000  0.91050000  0.53270000  1.0 -0.341747053
N  N31  1  0.68310000  0.58950000  0.03270000  1.0 -0.341747053
N  N32  1  0.18310000  0.08950000  0.53270000  1.0 -0.341747053
N  N33  1  0.58950000  0.96730000  0.31690000  1.0 -0.341747053
N  N34  1  0.08950000  0.46730000  0.81690000  1.0 -0.341747053
N  N35  1  0.41050000  0.96730000  0.68310000  1.0 -0.341747053
N  N36  1  0.91050000  0.46730000  0.18310000  1.0 -0.341747053
N  N37  1  0.41050000  0.03270000  0.31690000  1.0 -0.341747053
N  N38  1  0.91050000  0.53270000  0.81690000  1.0 -0.341747053
N  N39  1  0.58950000  0.03270000  0.68310000  1.0 -0.341747053
N  N40  1  0.08950000  0.53270000  0.18310000  1.0 -0.341747053
N  N41  1  0.96730000  0.31690000  0.58950000  1.0 -0.341747053
N  N42  1  0.46730000  0.81690000  0.08950000  1.0 -0.341747053
N  N43  1  0.96730000  0.68310000  0.41050000  1.0 -0.341747053
N  N44  1  0.46730000  0.18310000  0.91050000  1.0 -0.341747053
N  N45  1  0.03270000  0.31690000  0.41050000  1.0 -0.341747053
N  N46  1  0.53270000  0.81690000  0.91050000  1.0 -0.341747053
N  N47  1  0.03270000  0.68310000  0.58950000  1.0 -0.341747053
N  N48  1  0.53270000  0.18310000  0.08950000  1.0 -0.341747053
