# DDEC6 charges by PACMAN v1.1 (https://github.com/mtap-research/PACMAN-charge/)
data_c7cc06074b5_7_ASR_pacman
_symmetry_space_group_name_H-M   'P 1'
_cell_length_a   7.59290000
_cell_length_b   23.82100000
_cell_length_c   28.79900000
_cell_angle_alpha   90.00000000
_cell_angle_beta   90.00000000
_cell_angle_gamma   90.00000000
_symmetry_Int_Tables_number   1
_chemical_formula_structural   ZnH28C41S2N2(O2F3)2
_chemical_formula_sum   'Zn4 H112 C164 S8 N8 O16 F24'
_cell_volume   5208.88869145
_cell_formula_units_Z   4
loop_
 _symmetry_equiv_pos_site_id
 _symmetry_equiv_pos_as_xyz
  1  'x, y, z'
loop_
 _atom_site_type_symbol
 _atom_site_label
 _atom_site_symmetry_multiplicity
 _atom_site_fract_x
 _atom_site_fract_y
 _atom_site_fract_z
 _atom_site_occupancy
 _atom_site_charge
Zn  Zn1  1  0.08392000  0.96449000  0.23678000  1.0 0.7623224321
Zn  Zn2  1  0.41608000  0.03551000  0.73678000  1.0 0.7623224321
Zn  Zn3  1  0.58392000  0.53551000  0.76322000  1.0 0.7623224321
Zn  Zn4  1  0.91608000  0.46449000  0.26322000  1.0 0.7623224321
H  H1  1  0.65547000  0.85663000  0.26281000  1.0 0.1196491314
H  H2  1  0.84453000  0.14337000  0.76281000  1.0 0.1196491314
H  H3  1  0.15547000  0.64337000  0.73719000  1.0 0.1196491314
H  H4  1  0.34453000  0.35663000  0.23719000  1.0 0.1196491314
H  H5  1  0.26773000  0.92832000  0.77403000  1.0 0.1196491314
H  H6  1  0.23227000  0.07168000  0.27403000  1.0 0.1196491314
H  H7  1  0.76773000  0.57168000  0.22597000  1.0 0.1196491314
H  H8  1  0.73227000  0.42832000  0.72597000  1.0 0.1196491314
H  H9  1  0.44246000  0.96164000  0.19003000  1.0 0.1087002728
H  H10  1  0.05754000  0.03836000  0.69003000  1.0 0.1087002728
H  H11  1  0.94246000  0.53836000  0.80997000  1.0 0.1087002728
H  H12  1  0.55754000  0.46164000  0.30997000  1.0 0.1087002728
H  H13  1  0.56964000  0.92902000  0.12309000  1.0 0.1386097069
H  H14  1  0.93036000  0.07098000  0.62309000  1.0 0.1386097069
H  H15  1  0.06964000  0.57098000  0.87691000  1.0 0.1386097069
H  H16  1  0.43036000  0.42902000  0.37691000  1.0 0.1386097069
H  H17  1  0.73086000  0.86667000  0.83324000  1.0 0.1317803419
H  H18  1  0.76914000  0.13333000  0.33324000  1.0 0.1317803419
H  H19  1  0.23086000  0.63333000  0.16676000  1.0 0.1317803419
H  H20  1  0.26914000  0.36667000  0.66676000  1.0 0.1317803419
H  H21  1  0.01803000  0.89589000  0.81139000  1.0 0.1386097069
H  H22  1  0.48197000  0.10411000  0.31139000  1.0 0.1386097069
H  H23  1  0.51803000  0.60411000  0.18861000  1.0 0.1386097069
H  H24  1  0.98197000  0.39589000  0.68861000  1.0 0.1386097069
H  H25  1  0.86882000  0.68015000  0.30298000  1.0 0.1196491314
H  H26  1  0.63118000  0.31985000  0.80298000  1.0 0.1196491314
H  H27  1  0.36882000  0.81985000  0.69702000  1.0 0.1196491314
H  H28  1  0.13118000  0.18015000  0.19702000  1.0 0.1196491314
H  H29  1  0.06265000  0.75255000  0.29091000  1.0 0.1196491314
H  H30  1  0.43735000  0.24745000  0.79091000  1.0 0.1196491314
H  H31  1  0.56265000  0.74745000  0.70909000  1.0 0.1196491314
H  H32  1  0.93735000  0.25255000  0.20909000  1.0 0.1196491314
H  H33  1  0.97752000  0.90289000  0.15189000  1.0 0.1196491314
H  H34  1  0.52248000  0.09711000  0.65189000  1.0 0.1196491314
H  H35  1  0.47752000  0.59711000  0.84811000  1.0 0.1196491314
H  H36  1  0.02248000  0.40289000  0.34811000  1.0 0.1196491314
H  H37  1  0.32809000  0.70639000  0.24903000  1.0 0.1196491314
H  H38  1  0.17191000  0.29361000  0.74903000  1.0 0.1196491314
H  H39  1  0.82809000  0.79361000  0.75097000  1.0 0.1196491314
H  H40  1  0.67191000  0.20639000  0.25097000  1.0 0.1196491314
H  H41  1  0.09349000  0.87094000  0.08265000  1.0 0.1386097069
H  H42  1  0.40651000  0.12906000  0.58265000  1.0 0.1386097069
H  H43  1  0.59349000  0.62906000  0.91735000  1.0 0.1386097069
H  H44  1  0.90651000  0.37094000  0.41735000  1.0 0.1386097069
H  H45  1  0.09829000  0.08438000  0.78138000  1.0 0.1196491314
H  H46  1  0.40171000  0.91562000  0.28138000  1.0 0.1196491314
H  H47  1  0.59829000  0.41562000  0.21862000  1.0 0.1196491314
H  H48  1  0.90171000  0.58438000  0.71862000  1.0 0.1196491314
H  H49  1  0.21734000  0.84800000  0.01179000  1.0 0.1386097069
H  H50  1  0.28266000  0.15200000  0.51179000  1.0 0.1386097069
H  H51  1  0.71734000  0.65200000  0.98821000  1.0 0.1386097069
H  H52  1  0.78266000  0.34800000  0.48821000  1.0 0.1386097069
H  H53  1  0.75893000  0.82855000  0.92754000  1.0 0.0990807349
H  H54  1  0.74107000  0.17145000  0.42754000  1.0 0.0990807349
H  H55  1  0.25893000  0.67145000  0.07246000  1.0 0.0990807349
H  H56  1  0.24107000  0.32855000  0.57246000  1.0 0.0990807349
H  H57  1  0.86379000  0.81502000  0.97441000  1.0 0.1087002728
H  H58  1  0.63621000  0.18498000  0.47441000  1.0 0.1087002728
H  H59  1  0.36379000  0.68498000  0.02559000  1.0 0.1087002728
H  H60  1  0.13621000  0.31502000  0.52559000  1.0 0.0990807349
H  H61  1  0.65147000  0.63146000  0.34149000  1.0 0.1196491314
H  H62  1  0.84853000  0.36854000  0.84149000  1.0 0.1196491314
H  H63  1  0.15147000  0.86854000  0.65851000  1.0 0.1196491314
H  H64  1  0.34853000  0.13146000  0.15851000  1.0 0.1196491314
H  H65  1  0.46236000  0.78378000  0.27242000  1.0 0.1196491314
H  H66  1  0.03764000  0.21622000  0.77242000  1.0 0.1196491314
H  H67  1  0.96236000  0.71622000  0.72758000  1.0 0.1196491314
H  H68  1  0.53764000  0.28378000  0.22758000  1.0 0.1196491314
H  H69  1  0.13675000  0.63115000  0.25383000  1.0 0.1196491314
H  H70  1  0.36325000  0.36885000  0.75383000  1.0 0.1196491314
H  H71  1  0.63675000  0.86885000  0.74617000  1.0 0.1196491314
H  H72  1  0.86325000  0.13115000  0.24617000  1.0 0.1196491314
H  H73  1  0.83523000  0.92431000  0.93512000  1.0 0.1196491314
H  H74  1  0.66477000  0.07569000  0.43512000  1.0 0.1196491314
H  H75  1  0.33523000  0.57569000  0.06488000  1.0 0.1196491314
H  H76  1  0.16477000  0.42431000  0.56488000  1.0 0.1196491314
H  H77  1  0.00749000  0.88578000  0.93206000  1.0 0.0990807349
H  H78  1  0.49251000  0.11422000  0.43206000  1.0 0.0990807349
H  H79  1  0.50749000  0.61422000  0.06794000  1.0 0.0990807349
H  H80  1  0.99251000  0.38578000  0.56794000  1.0 0.0990807349
H  H81  1  0.94392000  0.90978000  0.98118000  1.0 0.1087002728
H  H82  1  0.55608000  0.09022000  0.48118000  1.0 0.1087002728
H  H83  1  0.44392000  0.59022000  0.01882000  1.0 0.1087002728
H  H84  1  0.05608000  0.40978000  0.51882000  1.0 0.1087002728
H  H85  1  0.46893000  0.55448000  0.34408000  1.0 0.1196491314
H  H86  1  0.03107000  0.44552000  0.84408000  1.0 0.1196491314
H  H87  1  0.96893000  0.94552000  0.65592000  1.0 0.1196491314
H  H88  1  0.53107000  0.05448000  0.15592000  1.0 0.1196491314
H  H89  1  0.83325000  0.05484000  0.81524000  1.0 0.1386097069
H  H90  1  0.66675000  0.94516000  0.31524000  1.0 0.1386097069
H  H91  1  0.33325000  0.44516000  0.18476000  1.0 0.1386097069
H  H92  1  0.16675000  0.55484000  0.68476000  1.0 0.1386097069
H  H93  1  0.22673000  0.93285000  0.92070000  0.47 0.0990807349
H  H94  1  0.27327000  0.06715000  0.42070000  0.47 0.0990807349
H  H95  1  0.72673000  0.56715000  0.07930000  0.47 0.0990807349
H  H96  1  0.77327000  0.43285000  0.57930000  0.47 0.0990807349
H  H97  1  0.23312000  0.99050000  0.89210000  0.47 0.0537404085
H  H98  1  0.26688000  0.00950000  0.39210000  0.47 0.0537404085
H  H99  1  0.73312000  0.50950000  0.10790000  0.47 0.0537404085
H  H100  1  0.76688000  0.49050000  0.60790000  0.47 0.0537404085
H  H101  1  0.43944000  0.98057000  0.97466000  0.47 0.0712153274
H  H102  1  0.06056000  0.01943000  0.47466000  0.47 0.0712153274
H  H103  1  0.93944000  0.51943000  0.02534000  0.47 0.0712153274
H  H104  1  0.56056000  0.48057000  0.52534000  0.47 0.0712153274
H  H105  1  0.23614000  0.99759000  0.97879000  0.47 0.0712153274
H  H106  1  0.26386000  0.00241000  0.47879000  0.47 0.0712153274
H  H107  1  0.73614000  0.50241000  0.02121000  0.47 0.0712153274
H  H108  1  0.76386000  0.49759000  0.52121000  0.47 0.0712153274
H  H109  1  0.37005000  0.03729000  0.95116000  0.47 0.0537404085
H  H110  1  0.12995000  0.96271000  0.45116000  0.47 0.0537404085
H  H111  1  0.87005000  0.46271000  0.04884000  0.47 0.0537404085
H  H112  1  0.62995000  0.53729000  0.54884000  0.47 0.0537404085
H  H113  1  0.31962000  0.04522000  0.91298000  0.53 0.0537404085
H  H114  1  0.18038000  0.95478000  0.41298000  0.53 0.0537404085
H  H115  1  0.81962000  0.45478000  0.08702000  0.53 0.0537404085
H  H116  1  0.68038000  0.54522000  0.58702000  0.53 0.0537404085
H  H117  1  0.14866000  0.02371000  0.94018000  0.53 0.090244446
H  H118  1  0.35134000  0.97629000  0.44018000  0.53 0.090244446
H  H119  1  0.64866000  0.47629000  0.05982000  0.53 0.090244446
H  H120  1  0.85134000  0.52371000  0.55982000  0.53 0.090244446
H  H121  1  0.16920000  0.01154000  0.88580000  0.53 0.0712153274
H  H122  1  0.33080000  0.98846000  0.38580000  0.53 0.0712153274
H  H123  1  0.66920000  0.48846000  0.11420000  0.53 0.0712153274
H  H124  1  0.83080000  0.51154000  0.61420000  0.53 0.0712153274
H  H125  1  0.38158000  0.96157000  0.95743000  0.53 0.0537404085
H  H126  1  0.11842000  0.03843000  0.45743000  0.53 0.0537404085
H  H127  1  0.88158000  0.53843000  0.04257000  0.53 0.0537404085
H  H128  1  0.61842000  0.46157000  0.54257000  0.53 0.0537404085
H  H129  1  0.23971000  0.92833000  0.92671000  0.53 0.0990807349
H  H130  1  0.26029000  0.07167000  0.42671000  0.53 0.0990807349
H  H131  1  0.73971000  0.57167000  0.07329000  0.53 0.0990807349
H  H132  1  0.76029000  0.42833000  0.57329000  0.53 0.0990807349
C  C1  1  0.89860000  0.97230000  0.81760000  1.0 0.1087002728
C  C2  1  0.60140000  0.02770000  0.31760000  1.0 0.1087002728
C  C3  1  0.39860000  0.52770000  0.18240000  1.0 0.1087002728
C  C4  1  0.10140000  0.47230000  0.68240000  1.0 0.1087002728
C  C5  1  0.34740000  0.89570000  0.09440000  1.0 0.1317803419
C  C6  1  0.15260000  0.10430000  0.59440000  1.0 0.1317803419
C  C7  1  0.84740000  0.60430000  0.90560000  1.0 0.1317803419
C  C8  1  0.65260000  0.39570000  0.40560000  1.0 0.1317803419
C  C9  1  0.69960000  0.82060000  0.27080000  1.0 -0.087789212
C  C10  1  0.80040000  0.17940000  0.77080000  1.0 -0.087789212
C  C11  1  0.19960000  0.67940000  0.72920000  1.0 -0.087789212
C  C12  1  0.30040000  0.32060000  0.22920000  1.0 -0.087789212
C  C13  1  0.45450000  0.84350000  0.97530000  1.0 0.0162113148
C  C14  1  0.04550000  0.15650000  0.47530000  1.0 0.0127169232
C  C15  1  0.95450000  0.65650000  0.02470000  1.0 0.0127169232
C  C16  1  0.54550000  0.34350000  0.52470000  1.0 0.0162113148
C  C17  1  0.00760000  0.85900000  0.26870000  1.0 0.550629473
C  C18  1  0.49240000  0.14100000  0.76870000  1.0 0.550629473
C  C19  1  0.50760000  0.64100000  0.73130000  1.0 0.550629473
C  C20  1  0.99240000  0.35900000  0.23130000  1.0 0.550629473
C  C21  1  0.28380000  0.58440000  0.29910000  1.0 -0.0222340778
C  C22  1  0.21620000  0.41560000  0.79910000  1.0 -0.0222340778
C  C23  1  0.78380000  0.91560000  0.70090000  1.0 -0.0222340778
C  C24  1  0.71620000  0.08440000  0.20090000  1.0 -0.0222340778
C  C25  1  0.18010000  0.95450000  0.78320000  1.0 0.0569270036
C  C26  1  0.31990000  0.04550000  0.28320000  1.0 0.0569270036
C  C27  1  0.68010000  0.54550000  0.21680000  1.0 0.0569270036
C  C28  1  0.81990000  0.45450000  0.71680000  1.0 0.0569270036
C  C29  1  0.17060000  0.53260000  0.29810000  1.0 0.550629473
C  C30  1  0.32940000  0.46740000  0.79810000  1.0 0.550629473
C  C31  1  0.67060000  0.96740000  0.70190000  1.0 0.550629473
C  C32  1  0.82940000  0.03260000  0.20190000  1.0 0.550629473
C  C33  1  0.52090000  0.89520000  0.87500000  1.0 -0.0107694972
C  C34  1  0.97910000  0.10480000  0.37500000  1.0 -0.0107694972
C  C35  1  0.02090000  0.60480000  0.12500000  1.0 -0.0107694972
C  C36  1  0.47910000  0.39520000  0.62500000  1.0 -0.0107694972
C  C37  1  0.31190000  0.76530000  0.92610000  1.0 0.3463125888
C  C38  1  0.18810000  0.23470000  0.42610000  1.0 0.3463125888
C  C39  1  0.81190000  0.73470000  0.07390000  1.0 0.3463125888
C  C40  1  0.68810000  0.26530000  0.57390000  1.0 0.3463125888
C  C41  1  0.37060000  0.94260000  0.16810000  1.0 0.0990807349
C  C42  1  0.12940000  0.05740000  0.66810000  1.0 0.0990807349
C  C43  1  0.87060000  0.55740000  0.83190000  1.0 0.0990807349
C  C44  1  0.62940000  0.44260000  0.33190000  1.0 0.0990807349
C  C45  1  0.44720000  0.92340000  0.12800000  1.0 -0.200428379
C  C46  1  0.05280000  0.07660000  0.62800000  1.0 -0.200428379
C  C47  1  0.94720000  0.57660000  0.87200000  1.0 -0.200428379
C  C48  1  0.55280000  0.42340000  0.37200000  1.0 -0.200428379
C  C49  1  0.25710000  0.75940000  0.87500000  1.0 0.2776547882
C  C50  1  0.24290000  0.24060000  0.37500000  1.0 0.2776547882
C  C51  1  0.75710000  0.74060000  0.12500000  1.0 0.2776547882
C  C52  1  0.74290000  0.25940000  0.62500000  1.0 0.2776547882
C  C53  1  0.67560000  0.89850000  0.84670000  1.0 -0.2160256927
C  C54  1  0.82440000  0.10150000  0.34670000  1.0 -0.2160256927
C  C55  1  0.17560000  0.60150000  0.15330000  1.0 -0.2160256927
C  C56  1  0.32440000  0.39850000  0.65330000  1.0 -0.2160256927
C  C57  1  0.51650000  0.67650000  0.29330000  1.0 0.0712153274
C  C58  1  0.98350000  0.32350000  0.79330000  1.0 0.0712153274
C  C59  1  0.01650000  0.82350000  0.70670000  1.0 0.0712153274
C  C60  1  0.48350000  0.17650000  0.20670000  1.0 0.0712153274
C  C61  1  0.42160000  0.87700000  0.05040000  1.0 -0.0381609344
C  C62  1  0.07840000  0.12300000  0.55040000  1.0 -0.0381609344
C  C63  1  0.92160000  0.62300000  0.94960000  1.0 -0.0381609344
C  C64  1  0.57840000  0.37700000  0.44960000  1.0 -0.0381609344
C  C65  1  0.03070000  0.93480000  0.80500000  1.0 -0.1858873304
C  C66  1  0.46930000  0.06520000  0.30500000  1.0 -0.1858873304
C  C67  1  0.53070000  0.56520000  0.19500000  1.0 -0.1858873304
C  C68  1  0.96930000  0.43480000  0.69500000  1.0 -0.1858873304
C  C69  1  0.82500000  0.71600000  0.29420000  1.0 -0.1407427883
C  C70  1  0.67500000  0.28400000  0.79420000  1.0 -0.1407427883
C  C71  1  0.32500000  0.78400000  0.70580000  1.0 -0.1407427883
C  C72  1  0.17500000  0.21600000  0.20580000  1.0 -0.1407427883
C  C73  1  0.87960000  0.81310000  0.27640000  1.0 -0.0325758786
C  C74  1  0.62040000  0.18690000  0.77640000  1.0 -0.0325758786
C  C75  1  0.37960000  0.68690000  0.72360000  1.0 -0.0325758786
C  C76  1  0.12040000  0.31310000  0.22360000  1.0 -0.0325758786
C  C77  1  0.38350000  0.80240000  0.85020000  1.0 0.361696488
C  C78  1  0.11650000  0.19760000  0.35020000  1.0 0.361696488
C  C79  1  0.88350000  0.69760000  0.14980000  1.0 0.361696488
C  C80  1  0.61650000  0.30240000  0.64980000  1.0 0.361696488
C  C81  1  0.93980000  0.75910000  0.28770000  1.0 -0.100227341
C  C82  1  0.56020000  0.24090000  0.78770000  1.0 -0.100227341
C  C83  1  0.43980000  0.74090000  0.71230000  1.0 -0.100227341
C  C84  1  0.06020000  0.25910000  0.21230000  1.0 -0.100227341
C  C85  1  0.63990000  0.72340000  0.28810000  1.0 0.0712153274
C  C86  1  0.86010000  0.27660000  0.78810000  1.0 0.0712153274
C  C87  1  0.13990000  0.77660000  0.71190000  1.0 0.0712153274
C  C88  1  0.36010000  0.22340000  0.21190000  1.0 0.0712153274
C  C89  1  0.09910000  0.90870000  0.14570000  1.0 0.090244446
C  C90  1  0.40090000  0.09130000  0.64570000  1.0 0.090244446
C  C91  1  0.59910000  0.59130000  0.85430000  1.0 0.090244446
C  C92  1  0.90090000  0.40870000  0.35430000  1.0 0.090244446
C  C93  1  0.43610000  0.84310000  0.88810000  1.0 -0.087789212
C  C94  1  0.06390000  0.15690000  0.38810000  1.0 -0.087789212
C  C95  1  0.93610000  0.65690000  0.11190000  1.0 -0.087789212
C  C96  1  0.56390000  0.34310000  0.61190000  1.0 -0.087789212
C  C97  1  0.35750000  0.67540000  0.26830000  1.0 -0.1487178982
C  C98  1  0.14250000  0.32460000  0.76830000  1.0 -0.1487178982
C  C99  1  0.85750000  0.82460000  0.73170000  1.0 -0.1487178982
C  C100  1  0.64250000  0.17540000  0.23170000  1.0 -0.1487178982
C  C101  1  0.16820000  0.88910000  0.10440000  1.0 -0.1805306797
C  C102  1  0.33180000  0.11090000  0.60440000  1.0 -0.1805306797
C  C103  1  0.66820000  0.61090000  0.89560000  1.0 -0.1805306797
C  C104  1  0.83180000  0.38910000  0.39560000  1.0 -0.1805306797
C  C105  1  0.08070000  0.04550000  0.78690000  1.0 0.090244446
C  C106  1  0.41930000  0.95450000  0.28690000  1.0 0.090244446
C  C107  1  0.58070000  0.45450000  0.21310000  1.0 0.090244446
C  C108  1  0.91930000  0.54550000  0.71310000  1.0 0.090244446
C  C109  1  0.34040000  0.85500000  0.01290000  1.0 -0.200428379
C  C110  1  0.15960000  0.14500000  0.51290000  1.0 -0.200428379
C  C111  1  0.84040000  0.64500000  0.98710000  1.0 -0.200428379
C  C112  1  0.65960000  0.35500000  0.48710000  1.0 -0.200428379
C  C113  1  0.63000000  0.85550000  0.98580000  1.0 0.0010394996
C  C114  1  0.87000000  0.14450000  0.48580000  1.0 0.0010394996
C  C115  1  0.13000000  0.64450000  0.01420000  1.0 0.0010394996
C  C116  1  0.37000000  0.35550000  0.51420000  1.0 0.0010394996
C  C117  1  0.79300000  0.84390000  0.95820000  1.0 -0.200428379
C  C118  1  0.70700000  0.15610000  0.45820000  1.0 -0.200428379
C  C119  1  0.29300000  0.65610000  0.04180000  1.0 -0.200428379
C  C120  1  0.20700000  0.34390000  0.54180000  1.0 -0.200428379
C  C121  1  0.40450000  0.82100000  0.92970000  1.0 -0.087789212
C  C122  1  0.09550000  0.17900000  0.42970000  1.0 -0.087789212
C  C123  1  0.90450000  0.67900000  0.07030000  1.0 -0.087789212
C  C124  1  0.59550000  0.32100000  0.57030000  1.0 -0.087789212
C  C125  1  0.54910000  0.63090000  0.32250000  1.0 -0.1407427883
C  C126  1  0.95090000  0.36910000  0.82250000  1.0 -0.1407427883
C  C127  1  0.04910000  0.86910000  0.67750000  1.0 -0.1407427883
C  C128  1  0.45090000  0.13090000  0.17750000  1.0 -0.1407427883
C  C129  1  0.58470000  0.77710000  0.27650000  1.0 -0.1407427883
C  C130  1  0.91530000  0.22290000  0.77650000  1.0 -0.1407427883
C  C131  1  0.08470000  0.72290000  0.72350000  1.0 -0.1407427883
C  C132  1  0.41530000  0.27710000  0.22350000  1.0 -0.1407427883
C  C133  1  0.24350000  0.63070000  0.27110000  1.0 -0.100227341
C  C134  1  0.25650000  0.36930000  0.77110000  1.0 -0.100227341
C  C135  1  0.74350000  0.86930000  0.72890000  1.0 -0.100227341
C  C136  1  0.75650000  0.13070000  0.22890000  1.0 -0.100227341
C  C137  1  0.46660000  0.94730000  0.89030000  1.0 0.0127169232
C  C138  1  0.03340000  0.05270000  0.39030000  1.0 0.0127169232
C  C139  1  0.96660000  0.55270000  0.10970000  1.0 0.0127169232
C  C140  1  0.53340000  0.44730000  0.60970000  1.0 0.0127169232
C  C141  1  0.90470000  0.89540000  0.95100000  1.0 -0.4153737363
C  C142  1  0.59530000  0.10460000  0.45100000  1.0 -0.4153737363
C  C143  1  0.40470000  0.60460000  0.04900000  1.0 -0.4153737363
C  C144  1  0.09530000  0.39540000  0.54900000  1.0 -0.4153737363
C  C145  1  0.43920000  0.58540000  0.32480000  1.0 -0.100227341
C  C146  1  0.06080000  0.41460000  0.82480000  1.0 -0.100227341
C  C147  1  0.93920000  0.91460000  0.67520000  1.0 -0.100227341
C  C148  1  0.56080000  0.08540000  0.17520000  1.0 -0.100227341
C  C149  1  0.73590000  0.95210000  0.84110000  1.0 -0.0024538893
C  C150  1  0.76410000  0.04790000  0.34110000  1.0 -0.0024538893
C  C151  1  0.23590000  0.54790000  0.15890000  1.0 -0.0024538893
C  C152  1  0.26410000  0.45210000  0.65890000  1.0 -0.0024538893
C  C153  1  0.92220000  0.02820000  0.80790000  1.0 -0.1858873304
C  C154  1  0.57780000  0.97180000  0.30790000  1.0 -0.1858873304
C  C155  1  0.42220000  0.47180000  0.19210000  1.0 -0.1858873304
C  C156  1  0.07780000  0.52820000  0.69210000  1.0 -0.1858873304
C  C157  1  0.30040000  0.96600000  0.91350000  0.47 -0.1126714929
C  C158  1  0.19960000  0.03400000  0.41350000  0.47 -0.1126714929
C  C159  1  0.80040000  0.53400000  0.08650000  0.47 -0.1126714929
C  C160  1  0.69960000  0.46600000  0.58650000  0.47 -0.1126714929
C  C161  1  0.34000000  0.99830000  0.95860000  0.47 -0.1487178982
C  C162  1  0.16000000  0.00170000  0.45860000  0.47 -0.1487178982
C  C163  1  0.84000000  0.50170000  0.04140000  0.47 -0.1487178982
C  C164  1  0.66000000  0.49830000  0.54140000  0.47 -0.1487178982
C  C165  1  0.23250000  0.01500000  0.91530000  0.53 -0.1487178982
C  C166  1  0.26750000  0.98500000  0.41530000  0.53 -0.1487178982
C  C167  1  0.73250000  0.48500000  0.08470000  0.53 -0.1487178982
C  C168  1  0.76750000  0.51500000  0.58470000  0.53 -0.1487178982
C  C169  1  0.32660000  0.95930000  0.92630000  0.53 -0.1126714929
C  C170  1  0.17340000  0.04070000  0.42630000  0.53 -0.1126714929
C  C171  1  0.82660000  0.54070000  0.07370000  0.53 -0.1126714929
C  C172  1  0.67340000  0.45930000  0.57370000  0.53 -0.1126714929
S  S1  1  0.60180000  0.99956000  0.86920000  1.0 0.0127169232
S  S2  1  0.89820000  0.00044000  0.36920000  1.0 0.0127169232
S  S3  1  0.10180000  0.50044000  0.13080000  1.0 0.0127169232
S  S4  1  0.39820000  0.49956000  0.63080000  1.0 0.0127169232
S  S5  1  0.64550000  0.88301000  0.04078000  1.0 0.0990807349
S  S6  1  0.85450000  0.11699000  0.54078000  1.0 0.0990807349
S  S7  1  0.14550000  0.61699000  0.95922000  1.0 0.0990807349
S  S8  1  0.35450000  0.38301000  0.45922000  1.0 0.0990807349
N  N1  1  0.19860000  0.93590000  0.17780000  1.0 -0.2398919251
N  N2  1  0.30140000  0.06410000  0.67780000  1.0 -0.2398919251
N  N3  1  0.69860000  0.56410000  0.82220000  1.0 -0.2398919251
N  N4  1  0.80140000  0.43590000  0.32220000  1.0 -0.2398919251
N  N5  1  0.20690000  0.00980000  0.77440000  1.0 -0.26095193
N  N6  1  0.29310000  0.99020000  0.27440000  1.0 -0.26095193
N  N7  1  0.70690000  0.49020000  0.22560000  1.0 -0.26095193
N  N8  1  0.79310000  0.50980000  0.72560000  1.0 -0.26095193
O  O1  1  0.93520000  0.90830000  0.26261000  1.0 -0.5634968218
O  O2  1  0.56480000  0.09170000  0.76261000  1.0 -0.5634968218
O  O3  1  0.43520000  0.59170000  0.73739000  1.0 -0.5634968218
O  O4  1  0.06480000  0.40830000  0.23739000  1.0 -0.5634968218
O  O5  1  0.03340000  0.53570000  0.27110000  1.0 -0.5655492482
O  O6  1  0.46660000  0.46430000  0.77110000  1.0 -0.5655492482
O  O7  1  0.53340000  0.96430000  0.72890000  1.0 -0.5655492482
O  O8  1  0.96660000  0.03570000  0.22890000  1.0 -0.5655492482
O  O9  1  0.21090000  0.49130000  0.32100000  1.0 -0.542330594
O  O10  1  0.28910000  0.50870000  0.82100000  1.0 -0.542330594
O  O11  1  0.71090000  0.00870000  0.67900000  1.0 -0.542330594
O  O12  1  0.78910000  0.99130000  0.17900000  1.0 -0.542330594
O  O13  1  0.16720000  0.85130000  0.26710000  1.0 -0.542330594
O  O14  1  0.33280000  0.14870000  0.76710000  1.0 -0.542330594
O  O15  1  0.66720000  0.64870000  0.73290000  1.0 -0.542330594
O  O16  1  0.83280000  0.35130000  0.23290000  1.0 -0.542330594
F  F1  1  0.42310000  0.72272000  0.93774000  1.0 -0.1699065429
F  F2  1  0.07690000  0.27728000  0.43774000  1.0 -0.1699065429
F  F3  1  0.92310000  0.77728000  0.06226000  1.0 -0.1699065429
F  F4  1  0.57690000  0.22272000  0.56226000  1.0 -0.1699065429
F  F5  1  0.52340000  0.77341000  0.83253000  1.0 -0.1699065429
F  F6  1  0.97660000  0.22659000  0.33253000  1.0 -0.1699065429
F  F7  1  0.02340000  0.72659000  0.16747000  1.0 -0.1699065429
F  F8  1  0.47660000  0.27341000  0.66747000  1.0 -0.1699065429
F  F9  1  0.09000000  0.77768000  0.86971000  1.0 -0.1407427883
F  F10  1  0.41000000  0.22232000  0.36971000  1.0 -0.1407427883
F  F11  1  0.59000000  0.72232000  0.13029000  1.0 -0.1407427883
F  F12  1  0.91000000  0.27768000  0.63029000  1.0 -0.1407427883
F  F13  1  0.30200000  0.82681000  0.81350000  1.0 -0.1576884792
F  F14  1  0.19800000  0.17319000  0.31350000  1.0 -0.1576884792
F  F15  1  0.80200000  0.67319000  0.18650000  1.0 -0.1576884792
F  F16  1  0.69800000  0.32681000  0.68650000  1.0 -0.1576884792
F  F17  1  0.17070000  0.76033000  0.95442000  1.0 -0.1576884792
F  F18  1  0.32930000  0.23967000  0.45442000  1.0 -0.1576884792
F  F19  1  0.67070000  0.73967000  0.04558000  1.0 -0.1576884792
F  F20  1  0.82930000  0.26033000  0.54558000  1.0 -0.1576884792
F  F21  1  0.27150000  0.70740000  0.85858000  1.0 -0.1487178982
F  F22  1  0.22850000  0.29260000  0.35858000  1.0 -0.1487178982
F  F23  1  0.77150000  0.79260000  0.14142000  1.0 -0.1487178982
F  F24  1  0.72850000  0.20740000  0.64142000  1.0 -0.1487178982
