# DDEC6 charges by PACMAN v1.1 (https://github.com/mtap-research/PACMAN-charge/)
data_ja204757x_si_002_ASR_pacman
_symmetry_space_group_name_H-M   'P 1'
_cell_length_a   17.02930000
_cell_length_b   17.02930000
_cell_length_c   17.02930000
_cell_angle_alpha   90.00000000
_cell_angle_beta   90.00000000
_cell_angle_gamma   90.00000000
_symmetry_Int_Tables_number   1
_chemical_formula_structural   Zn(C2N)4
_chemical_formula_sum   'Zn12 C96 N48'
_cell_volume   4938.44690814
_cell_formula_units_Z   12
loop_
 _symmetry_equiv_pos_site_id
 _symmetry_equiv_pos_as_xyz
  1  'x, y, z'
loop_
 _atom_site_type_symbol
 _atom_site_label
 _atom_site_symmetry_multiplicity
 _atom_site_fract_x
 _atom_site_fract_y
 _atom_site_fract_z
 _atom_site_occupancy
 _atom_site_charge
Zn  Zn1  1  0.50000000  0.00000000  0.75000000  1.0 0.6924831939
Zn  Zn2  1  0.50000000  0.00000000  0.25000000  1.0 0.6924831939
Zn  Zn3  1  0.75000000  0.50000000  0.00000000  1.0 0.6924831939
Zn  Zn4  1  0.25000000  0.50000000  0.00000000  1.0 0.6924831939
Zn  Zn5  1  0.00000000  0.75000000  0.50000000  1.0 0.6924831939
Zn  Zn6  1  0.00000000  0.25000000  0.50000000  1.0 0.6924831939
Zn  Zn7  1  0.00000000  0.50000000  0.75000000  1.0 0.6924831939
Zn  Zn8  1  0.00000000  0.50000000  0.25000000  1.0 0.6924831939
Zn  Zn9  1  0.50000000  0.75000000  0.00000000  1.0 0.6924831939
Zn  Zn10  1  0.50000000  0.25000000  0.00000000  1.0 0.6924831939
Zn  Zn11  1  0.75000000  0.00000000  0.50000000  1.0 0.6924831939
Zn  Zn12  1  0.25000000  0.00000000  0.50000000  1.0 0.6924831939
C  C1  1  0.36851000  0.89914000  0.68750000  1.0 0.0660991511
C  C2  1  0.86851000  0.39914000  0.18750000  1.0 0.0660991511
C  C3  1  0.63149000  0.10086000  0.68750000  1.0 0.0660991511
C  C4  1  0.13149000  0.60086000  0.18750000  1.0 0.0660991511
C  C5  1  0.63149000  0.89914000  0.31250000  1.0 0.0660991511
C  C6  1  0.13149000  0.39914000  0.81250000  1.0 0.0660991511
C  C7  1  0.36851000  0.10086000  0.31250000  1.0 0.0660991511
C  C8  1  0.86851000  0.60086000  0.81250000  1.0 0.0660991511
C  C9  1  0.68750000  0.36851000  0.89914000  1.0 0.0660991511
C  C10  1  0.18750000  0.86851000  0.39914000  1.0 0.0660991511
C  C11  1  0.68750000  0.63149000  0.10086000  1.0 0.0660991511
C  C12  1  0.18750000  0.13149000  0.60086000  1.0 0.0660991511
C  C13  1  0.31250000  0.63149000  0.89914000  1.0 0.0660991511
C  C14  1  0.81250000  0.13149000  0.39914000  1.0 0.0660991511
C  C15  1  0.31250000  0.36851000  0.10086000  1.0 0.0660991511
C  C16  1  0.81250000  0.86851000  0.60086000  1.0 0.0660991511
C  C17  1  0.89914000  0.68750000  0.36851000  1.0 0.0660991511
C  C18  1  0.39914000  0.18750000  0.86851000  1.0 0.0660991511
C  C19  1  0.10086000  0.68750000  0.63149000  1.0 0.0660991511
C  C20  1  0.60086000  0.18750000  0.13149000  1.0 0.0660991511
C  C21  1  0.89914000  0.31250000  0.63149000  1.0 0.0660991511
C  C22  1  0.39914000  0.81250000  0.13149000  1.0 0.0660991511
C  C23  1  0.10086000  0.31250000  0.36851000  1.0 0.0660991511
C  C24  1  0.60086000  0.81250000  0.86851000  1.0 0.0660991511
C  C25  1  0.89914000  0.36851000  0.68750000  1.0 0.0660991511
C  C26  1  0.39914000  0.86851000  0.18750000  1.0 0.0660991511
C  C27  1  0.10086000  0.63149000  0.68750000  1.0 0.0660991511
C  C28  1  0.60086000  0.13149000  0.18750000  1.0 0.0660991511
C  C29  1  0.89914000  0.63149000  0.31250000  1.0 0.0660991511
C  C30  1  0.39914000  0.13149000  0.81250000  1.0 0.0660991511
C  C31  1  0.10086000  0.36851000  0.31250000  1.0 0.0660991511
C  C32  1  0.60086000  0.86851000  0.81250000  1.0 0.0660991511
C  C33  1  0.36851000  0.68750000  0.89914000  1.0 0.0660991511
C  C34  1  0.86851000  0.18750000  0.39914000  1.0 0.0660991511
C  C35  1  0.63149000  0.68750000  0.10086000  1.0 0.0660991511
C  C36  1  0.13149000  0.18750000  0.60086000  1.0 0.0660991511
C  C37  1  0.63149000  0.31250000  0.89914000  1.0 0.0660991511
C  C38  1  0.13149000  0.81250000  0.39914000  1.0 0.0660991511
C  C39  1  0.36851000  0.31250000  0.10086000  1.0 0.0660991511
C  C40  1  0.86851000  0.81250000  0.60086000  1.0 0.0660991511
C  C41  1  0.68750000  0.89914000  0.36851000  1.0 0.0660991511
C  C42  1  0.18750000  0.39914000  0.86851000  1.0 0.0660991511
C  C43  1  0.68750000  0.10086000  0.63149000  1.0 0.0660991511
C  C44  1  0.18750000  0.60086000  0.13149000  1.0 0.0660991511
C  C45  1  0.31250000  0.89914000  0.63149000  1.0 0.0660991511
C  C46  1  0.81250000  0.39914000  0.13149000  1.0 0.0660991511
C  C47  1  0.31250000  0.10086000  0.36851000  1.0 0.0660991511
C  C48  1  0.81250000  0.60086000  0.86851000  1.0 0.0660991511
C  C49  1  0.37705000  0.00790000  0.62295000  1.0 0.3984728056
C  C50  1  0.40610000  0.08550000  0.59390000  1.0 -0.2472914937
C  C51  1  0.87705000  0.50790000  0.12295000  1.0 0.3984728056
C  C52  1  0.90610000  0.58550000  0.09390000  1.0 -0.2472914937
C  C53  1  0.62295000  0.99210000  0.62295000  1.0 0.3984728056
C  C54  1  0.59390000  0.91450000  0.59390000  1.0 -0.2440343476
C  C55  1  0.12295000  0.49210000  0.12295000  1.0 0.3984728056
C  C56  1  0.09390000  0.41450000  0.09390000  1.0 -0.2472914937
C  C57  1  0.62295000  0.00790000  0.37705000  1.0 0.3984728056
C  C58  1  0.59390000  0.08550000  0.40610000  1.0 -0.2472914937
C  C59  1  0.12295000  0.50790000  0.87705000  1.0 0.3984728056
C  C60  1  0.09390000  0.58550000  0.90610000  1.0 -0.2472914937
C  C61  1  0.37705000  0.99210000  0.37705000  1.0 0.3984728056
C  C62  1  0.40610000  0.91450000  0.40610000  1.0 -0.2440343476
C  C63  1  0.87705000  0.49210000  0.87705000  1.0 0.3984728056
C  C64  1  0.90610000  0.41450000  0.90610000  1.0 -0.2440343476
C  C65  1  0.62295000  0.37705000  0.00790000  1.0 0.3984728056
C  C66  1  0.59390000  0.40610000  0.08550000  1.0 -0.2472914937
C  C67  1  0.12295000  0.87705000  0.50790000  1.0 0.3984728056
C  C68  1  0.09390000  0.90610000  0.58550000  1.0 -0.2472914937
C  C69  1  0.62295000  0.62295000  0.99210000  1.0 0.3984728056
C  C70  1  0.59390000  0.59390000  0.91450000  1.0 -0.2440343476
C  C71  1  0.12295000  0.12295000  0.49210000  1.0 0.3984728056
C  C72  1  0.09390000  0.09390000  0.41450000  1.0 -0.2472914937
C  C73  1  0.37705000  0.62295000  0.00790000  1.0 0.3984728056
C  C74  1  0.40610000  0.59390000  0.08550000  1.0 -0.2472914937
C  C75  1  0.87705000  0.12295000  0.50790000  1.0 0.3984728056
C  C76  1  0.90610000  0.09390000  0.58550000  1.0 -0.2472914937
C  C77  1  0.37705000  0.37705000  0.99210000  1.0 0.3984728056
C  C78  1  0.40610000  0.40610000  0.91450000  1.0 -0.2440343476
C  C79  1  0.87705000  0.87705000  0.49210000  1.0 0.3984728056
C  C80  1  0.90610000  0.90610000  0.41450000  1.0 -0.2472914937
C  C81  1  0.00790000  0.62295000  0.37705000  1.0 0.3984728056
C  C82  1  0.08550000  0.59390000  0.40610000  1.0 -0.2472914937
C  C83  1  0.50790000  0.12295000  0.87705000  1.0 0.3984728056
C  C84  1  0.58550000  0.09390000  0.90610000  1.0 -0.2440343476
C  C85  1  0.99210000  0.62295000  0.62295000  1.0 0.3984728056
C  C86  1  0.91450000  0.59390000  0.59390000  1.0 -0.2440343476
C  C87  1  0.49210000  0.12295000  0.12295000  1.0 0.3984728056
C  C88  1  0.41450000  0.09390000  0.09390000  1.0 -0.2472914937
C  C89  1  0.00790000  0.37705000  0.62295000  1.0 0.3984728056
C  C90  1  0.08550000  0.40610000  0.59390000  1.0 -0.2472914937
C  C91  1  0.50790000  0.87705000  0.12295000  1.0 0.3984728056
C  C92  1  0.58550000  0.90610000  0.09390000  1.0 -0.2472914937
C  C93  1  0.99210000  0.37705000  0.37705000  1.0 0.3984728056
C  C94  1  0.91450000  0.40610000  0.40610000  1.0 -0.2440343476
C  C95  1  0.49210000  0.87705000  0.87705000  1.0 0.3984728056
C  C96  1  0.41450000  0.90610000  0.90610000  1.0 -0.2472914937
N  N1  1  0.40973000  0.96832000  0.68278000  1.0 -0.3154564016
N  N2  1  0.90973000  0.46832000  0.18278000  1.0 -0.3154564016
N  N3  1  0.59027000  0.03168000  0.68278000  1.0 -0.3154564016
N  N4  1  0.09027000  0.53168000  0.18278000  1.0 -0.3154564016
N  N5  1  0.59027000  0.96832000  0.31722000  1.0 -0.3154564016
N  N6  1  0.09027000  0.46832000  0.81722000  1.0 -0.3142211414
N  N7  1  0.40973000  0.03168000  0.31722000  1.0 -0.3154564016
N  N8  1  0.90973000  0.53168000  0.81722000  1.0 -0.3154564016
N  N9  1  0.68278000  0.40973000  0.96832000  1.0 -0.3154564016
N  N10  1  0.18278000  0.90973000  0.46832000  1.0 -0.3142211414
N  N11  1  0.68278000  0.59027000  0.03168000  1.0 -0.3154564016
N  N12  1  0.18278000  0.09027000  0.53168000  1.0 -0.3154564016
N  N13  1  0.31722000  0.59027000  0.96832000  1.0 -0.3154564016
N  N14  1  0.81722000  0.09027000  0.46832000  1.0 -0.3154564016
N  N15  1  0.31722000  0.40973000  0.03168000  1.0 -0.3154564016
N  N16  1  0.81722000  0.90973000  0.53168000  1.0 -0.3154564016
N  N17  1  0.96832000  0.68278000  0.40973000  1.0 -0.3154564016
N  N18  1  0.46832000  0.18278000  0.90973000  1.0 -0.3142211414
N  N19  1  0.03168000  0.68278000  0.59027000  1.0 -0.3154564016
N  N20  1  0.53168000  0.18278000  0.09027000  1.0 -0.3154564016
N  N21  1  0.96832000  0.31722000  0.59027000  1.0 -0.3154564016
N  N22  1  0.46832000  0.81722000  0.09027000  1.0 -0.3154564016
N  N23  1  0.03168000  0.31722000  0.40973000  1.0 -0.3154564016
N  N24  1  0.53168000  0.81722000  0.90973000  1.0 -0.3154564016
N  N25  1  0.96832000  0.40973000  0.68278000  1.0 -0.3154564016
N  N26  1  0.46832000  0.90973000  0.18278000  1.0 -0.3154564016
N  N27  1  0.03168000  0.59027000  0.68278000  1.0 -0.3154564016
N  N28  1  0.53168000  0.09027000  0.18278000  1.0 -0.3154564016
N  N29  1  0.96832000  0.59027000  0.31722000  1.0 -0.3154564016
N  N30  1  0.46832000  0.09027000  0.81722000  1.0 -0.3154564016
N  N31  1  0.03168000  0.40973000  0.31722000  1.0 -0.3154564016
N  N32  1  0.53168000  0.90973000  0.81722000  1.0 -0.3154564016
N  N33  1  0.40973000  0.68278000  0.96832000  1.0 -0.3154564016
N  N34  1  0.90973000  0.18278000  0.46832000  1.0 -0.3154564016
N  N35  1  0.59027000  0.68278000  0.03168000  1.0 -0.3154564016
N  N36  1  0.09027000  0.18278000  0.53168000  1.0 -0.3154564016
N  N37  1  0.59027000  0.31722000  0.96832000  1.0 -0.3154564016
N  N38  1  0.09027000  0.81722000  0.46832000  1.0 -0.3154564016
N  N39  1  0.40973000  0.31722000  0.03168000  1.0 -0.3154564016
N  N40  1  0.90973000  0.81722000  0.53168000  1.0 -0.3154564016
N  N41  1  0.68278000  0.96832000  0.40973000  1.0 -0.3154564016
N  N42  1  0.18278000  0.46832000  0.90973000  1.0 -0.3142211414
N  N43  1  0.68278000  0.03168000  0.59027000  1.0 -0.3154564016
N  N44  1  0.18278000  0.53168000  0.09027000  1.0 -0.3154564016
N  N45  1  0.31722000  0.96832000  0.59027000  1.0 -0.3154564016
N  N46  1  0.81722000  0.46832000  0.09027000  1.0 -0.3154564016
N  N47  1  0.31722000  0.03168000  0.40973000  1.0 -0.3154564016
N  N48  1  0.81722000  0.53168000  0.90973000  1.0 -0.3154564016
