# DDEC6 charges by PACMAN v1.1 (https://github.com/mtap-research/PACMAN-charge/)
data_2018[Zn][sql]2[FSR]8
_chemical_formula_sum              "Zn4 H64 C96 N8 O16"
_cell_length_a       11.9844
_cell_length_b       15.5676
_cell_length_c       17.267
_cell_angle_alpha    90
_cell_angle_beta     90
_cell_angle_gamma    90

_symmetry_space_group_name_H-M    "P 1"
_symmetry_Int_Tables_number       1

loop_
  _symmetry_equiv_pos_as_xyz
  'x, y, z'

loop_
  _atom_site_type_symbol
  _atom_site_label
  _atom_site_symmetry_multiplicity
  _atom_site_fract_x
  _atom_site_fract_y
  _atom_site_fract_z
  _atom_site_occupancy
  _atom_site_charge
Zn  Zn1       1.0  0.99639  0.32910  0.99562  1.0000 0.7343691665
Zn  Zn2       1.0  0.00361  0.82910  0.50438  1.0000 0.7343691665
Zn  Zn3       1.0  0.50361  0.67090  0.49562  1.0000 0.7343691665
Zn  Zn4       1.0  0.49639  0.17090  0.00438  1.0000 0.7343691665
H   H1        1.0  0.93360  0.53800  0.19900  1.0000 0.1189920927
H   H2        1.0  0.63450  0.56970  0.29740  1.0000 0.1252169538
H   H3        1.0  0.55690  0.48140  0.20520  1.0000 0.1120280983
H   H4        1.0  0.66960  0.40890  0.11820  1.0000 0.1120280983
H   H5        1.0  0.95150  0.68250  0.24210  1.0000 0.1383517983
H   H6        1.0  0.03090  0.76960  0.33180  1.0000 0.1120280983
H   H7        1.0  0.75530  0.58710  0.40880  1.0000 0.1512810926
H   H8        1.0  0.84090  0.67750  0.49470  1.0000 0.1120280983
H   H9        1.0  0.07780  0.53880  0.80580  1.0000 0.1120280983
H   H10       1.0  0.38500  0.59750  0.73220  1.0000 0.1189920927
H   H11       1.0  0.45910  0.50920  0.82580  1.0000 0.1120280983
H   H12       1.0  0.34300  0.42770  0.90430  1.0000 0.1189920927
H   H13       1.0  0.97620  0.77450  0.67750  1.0000 0.1120280983
H   H14       1.0  0.05310  0.68780  0.76870  1.0000 0.1383517983
H   H15       1.0  0.27250  0.60700  0.61030  1.0000 0.1512810926
H   H16       1.0  0.18470  0.69040  0.52100  1.0000 0.1189920927
H   H17       1.0  0.06640  0.03800  0.30100  1.0000 0.1189920927
H   H18       1.0  0.36550  0.06970  0.20260  1.0000 0.1189920927
H   H19       1.0  0.44310  0.98140  0.29480  1.0000 0.1120280983
H   H20       1.0  0.33040  0.90890  0.38180  1.0000 0.1120280983
H   H21       1.0  0.04850  0.18250  0.25790  1.0000 0.1383517983
H   H22       1.0  0.96910  0.26960  0.16820  1.0000 0.1120280983
H   H23       1.0  0.24470  0.08710  0.09120  1.0000 0.1512810926
H   H24       1.0  0.15910  0.17750  0.00530  1.0000 0.1120280983
H   H25       1.0  0.92220  0.03880  0.69420  1.0000 0.1120280983
H   H26       1.0  0.61500  0.09750  0.76780  1.0000 0.1189920927
H   H27       1.0  0.54090  0.00920  0.67420  1.0000 0.1120280983
H   H28       1.0  0.65700  0.92770  0.59570  1.0000 0.1189920927
H   H29       1.0  0.02380  0.27450  0.82250  1.0000 0.1120280983
H   H30       1.0  0.94690  0.18780  0.73130  1.0000 0.1383517983
H   H31       1.0  0.72750  0.10700  0.88970  1.0000 0.1512810926
H   H32       1.0  0.81530  0.19040  0.97900  1.0000 0.1189920927
H   H33       1.0  0.56640  0.46200  0.69900  1.0000 0.1189920927
H   H34       1.0  0.86550  0.43030  0.79740  1.0000 0.1189920927
H   H35       1.0  0.94310  0.51860  0.70520  1.0000 0.1120280983
H   H36       1.0  0.83040  0.59110  0.61820  1.0000 0.1120280983
H   H37       1.0  0.54850  0.31750  0.74210  1.0000 0.1383517983
H   H38       1.0  0.46910  0.23040  0.83180  1.0000 0.1120280983
H   H39       1.0  0.74470  0.41290  0.90880  1.0000 0.1512810926
H   H40       1.0  0.65910  0.32250  0.99470  1.0000 0.1120280983
H   H41       1.0  0.42220  0.46120  0.30580  1.0000 0.1120280983
H   H42       1.0  0.11500  0.40250  0.23220  1.0000 0.1189920927
H   H43       1.0  0.04090  0.49080  0.32580  1.0000 0.1120280983
H   H44       1.0  0.15700  0.57230  0.40430  1.0000 0.1189920927
H   H45       1.0  0.52380  0.22550  0.17750  1.0000 0.1120280983
H   H46       1.0  0.44690  0.31220  0.26870  1.0000 0.1383517983
H   H47       1.0  0.22750  0.39300  0.11030  1.0000 0.1512810926
H   H48       1.0  0.31530  0.30960  0.02100  1.0000 0.1189920927
H   H49       1.0  0.43360  0.96200  0.80100  1.0000 0.1189920927
H   H50       1.0  0.13450  0.93030  0.70260  1.0000 0.1189920927
H   H51       1.0  0.05690  0.01860  0.79480  1.0000 0.1120280983
H   H52       1.0  0.16960  0.09110  0.88180  1.0000 0.1120280983
H   H53       1.0  0.45150  0.81750  0.75790  1.0000 0.1383517983
H   H54       1.0  0.53090  0.73040  0.66820  1.0000 0.1120280983
H   H55       1.0  0.25530  0.91290  0.59120  1.0000 0.1512810926
H   H56       1.0  0.34090  0.82250  0.50530  1.0000 0.1120280983
H   H57       1.0  0.57780  0.96120  0.19420  1.0000 0.1120280983
H   H58       1.0  0.88500  0.90250  0.26780  1.0000 0.1189920927
H   H59       1.0  0.95910  0.99080  0.17420  1.0000 0.1120280983
H   H60       1.0  0.84300  0.07230  0.09570  1.0000 0.1189920927
H   H61       1.0  0.47620  0.72550  0.32250  1.0000 0.1120280983
H   H62       1.0  0.55310  0.81220  0.23130  1.0000 0.1383517983
H   H63       1.0  0.77250  0.89300  0.38970  1.0000 0.1512810926
H   H64       1.0  0.68470  0.80960  0.47900  1.0000 0.1189920927
C   C1        1.0  0.88870  0.41950  0.09510  1.0000 0.537311368
C   C2        1.0  0.81440  0.46520  0.15090  1.0000 -0.0168454248
C   C3        1.0  0.85820  0.52430  0.20210  1.0000 -0.1501491458
C   C4        1.0  0.79320  0.56380  0.25810  1.0000 0.0569563046
C   C5        1.0  0.67960  0.54510  0.25970  1.0000 -0.1320780363
C   C6        1.0  0.63370  0.49030  0.20580  1.0000 -0.0956309286
C   C7        1.0  0.70060  0.44820  0.15260  1.0000 -0.1100684756
C   C8        1.0  0.92790  0.67990  0.29330  1.0000 -0.2027854842
C   C9        1.0  0.97490  0.73220  0.34760  1.0000 0.074437084
C   C10       1.0  0.84460  0.62270  0.31480  1.0000 0.1189920927
C   C11       1.0  0.81180  0.62350  0.39190  1.0000 -0.1868449204
C   C12       1.0  0.86350  0.67830  0.44310  1.0000 0.0818083289
C   C13       1.0  0.12050  0.42040  0.90900  1.0000 0.537311368
C   C14       1.0  0.19840  0.47350  0.86120  1.0000 -0.0147482196
C   C15       1.0  0.15460  0.53130  0.80850  1.0000 -0.1501491458
C   C16       1.0  0.22300  0.57810  0.75950  1.0000 0.0569563046
C   C17       1.0  0.33790  0.56770  0.76550  1.0000 -0.1320780363
C   C18       1.0  0.38210  0.51350  0.82050  1.0000 -0.0956309286
C   C19       1.0  0.31270  0.46520  0.86810  1.0000 -0.1100684756
C   C20       1.0  0.03510  0.73890  0.66340  1.0000 0.074437084
C   C21       1.0  0.08190  0.68770  0.71870  1.0000 -0.2054374587
C   C22       1.0  0.17240  0.63530  0.70080  1.0000 0.1189920927
C   C23       1.0  0.21070  0.63930  0.62490  1.0000 -0.1868449204
C   C24       1.0  0.15830  0.69020  0.57170  1.0000 0.0818083289
C   C25       1.0  0.11130  0.91950  0.40490  1.0000 0.537311368
C   C26       1.0  0.18560  0.96520  0.34910  1.0000 -0.0168454248
C   C27       1.0  0.14180  0.02430  0.29790  1.0000 -0.1501491458
C   C28       1.0  0.20680  0.06380  0.24190  1.0000 0.0569563046
C   C29       1.0  0.32040  0.04510  0.24030  1.0000 -0.1320780363
C   C30       1.0  0.36630  0.99030  0.29420  1.0000 -0.0956309286
C   C31       1.0  0.29940  0.94820  0.34740  1.0000 -0.1100684756
C   C32       1.0  0.07210  0.17990  0.20670  1.0000 -0.2027854842
C   C33       1.0  0.02510  0.23220  0.15240  1.0000 0.074437084
C   C34       1.0  0.15540  0.12270  0.18520  1.0000 0.1189920927
C   C35       1.0  0.18820  0.12350  0.10810  1.0000 -0.1868449204
C   C36       1.0  0.13650  0.17830  0.05690  1.0000 0.0818083289
C   C37       1.0  0.87950  0.92040  0.59100  1.0000 0.537311368
C   C38       1.0  0.80160  0.97350  0.63880  1.0000 -0.0147482196
C   C39       1.0  0.84540  0.03130  0.69150  1.0000 -0.1501491458
C   C40       1.0  0.77700  0.07810  0.74050  1.0000 0.0569563046
C   C41       1.0  0.66210  0.06770  0.73450  1.0000 -0.1320780363
C   C42       1.0  0.61790  0.01350  0.67950  1.0000 -0.0956309286
C   C43       1.0  0.68730  0.96520  0.63190  1.0000 -0.1100684756
C   C44       1.0  0.96490  0.23890  0.83660  1.0000 0.074437084
C   C45       1.0  0.91810  0.18770  0.78130  1.0000 -0.2054374587
C   C46       1.0  0.82760  0.13530  0.79920  1.0000 0.1189920927
C   C47       1.0  0.78930  0.13930  0.87510  1.0000 -0.1868449204
C   C48       1.0  0.84170  0.19020  0.92830  1.0000 0.0818083289
C   C49       1.0  0.61130  0.58050  0.59510  1.0000 0.537311368
C   C50       1.0  0.68560  0.53480  0.65090  1.0000 -0.0168454248
C   C51       1.0  0.64180  0.47570  0.70210  1.0000 -0.1501491458
C   C52       1.0  0.70680  0.43620  0.75810  1.0000 0.0569563046
C   C53       1.0  0.82040  0.45490  0.75970  1.0000 -0.1320780363
C   C54       1.0  0.86630  0.50970  0.70580  1.0000 -0.0956309286
C   C55       1.0  0.79940  0.55180  0.65260  1.0000 -0.1100684756
C   C56       1.0  0.57210  0.32010  0.79330  1.0000 -0.2027854842
C   C57       1.0  0.52510  0.26780  0.84760  1.0000 0.074437084
C   C58       1.0  0.65540  0.37730  0.81480  1.0000 0.1189920927
C   C59       1.0  0.68820  0.37650  0.89190  1.0000 -0.1868449204
C   C60       1.0  0.63650  0.32170  0.94310  1.0000 0.0818083289
C   C61       1.0  0.37950  0.57960  0.40900  1.0000 0.537311368
C   C62       1.0  0.30160  0.52650  0.36120  1.0000 -0.0147482196
C   C63       1.0  0.34540  0.46870  0.30850  1.0000 -0.1501491458
C   C64       1.0  0.27700  0.42190  0.25950  1.0000 0.0569563046
C   C65       1.0  0.16210  0.43230  0.26550  1.0000 -0.1320780363
C   C66       1.0  0.11790  0.48650  0.32050  1.0000 -0.0956309286
C   C67       1.0  0.18730  0.53480  0.36810  1.0000 -0.1100684756
C   C68       1.0  0.46490  0.26110  0.16340  1.0000 0.074437084
C   C69       1.0  0.41810  0.31230  0.21870  1.0000 -0.2054374587
C   C70       1.0  0.32760  0.36470  0.20080  1.0000 0.1189920927
C   C71       1.0  0.28930  0.36070  0.12490  1.0000 -0.1868449204
C   C72       1.0  0.34170  0.30980  0.07170  1.0000 0.0818083289
C   C73       1.0  0.38870  0.08050  0.90490  1.0000 0.537311368
C   C74       1.0  0.31440  0.03480  0.84910  1.0000 -0.0168454248
C   C75       1.0  0.35820  0.97570  0.79790  1.0000 -0.1501491458
C   C76       1.0  0.29320  0.93620  0.74190  1.0000 0.0569563046
C   C77       1.0  0.17960  0.95490  0.74030  1.0000 -0.1320780363
C   C78       1.0  0.13370  0.00970  0.79420  1.0000 -0.0956309286
C   C79       1.0  0.20060  0.05180  0.84740  1.0000 -0.1100684756
C   C80       1.0  0.42790  0.82010  0.70670  1.0000 -0.2027854842
C   C81       1.0  0.47490  0.76780  0.65240  1.0000 0.074437084
C   C82       1.0  0.34460  0.87730  0.68520  1.0000 0.1189920927
C   C83       1.0  0.31180  0.87650  0.60810  1.0000 -0.1868449204
C   C84       1.0  0.36350  0.82170  0.55690  1.0000 0.0818083289
C   C85       1.0  0.62050  0.07960  0.09100  1.0000 0.537311368
C   C86       1.0  0.69840  0.02650  0.13880  1.0000 -0.0147482196
C   C87       1.0  0.65460  0.96870  0.19150  1.0000 -0.1501491458
C   C88       1.0  0.72300  0.92190  0.24050  1.0000 0.0569563046
C   C89       1.0  0.83790  0.93230  0.23450  1.0000 -0.1320780363
C   C90       1.0  0.88210  0.98650  0.17950  1.0000 -0.0956309286
C   C91       1.0  0.81270  0.03480  0.13190  1.0000 -0.1100684756
C   C92       1.0  0.53510  0.76110  0.33660  1.0000 0.074437084
C   C93       1.0  0.58190  0.81230  0.28130  1.0000 -0.2054374587
C   C94       1.0  0.67240  0.86470  0.29920  1.0000 0.1189920927
C   C95       1.0  0.71070  0.86070  0.37510  1.0000 -0.1868449204
C   C96       1.0  0.65830  0.80980  0.42830  1.0000 0.0818083289
N   N1        1.0  0.94480  0.73260  0.42240  1.0000 -0.241546245
N   N2        1.0  0.07020  0.74010  0.58950  1.0000 -0.241546245
N   N3        1.0  0.05520  0.23260  0.07760  1.0000 -0.241546245
N   N4        1.0  0.92980  0.24010  0.91050  1.0000 -0.241546245
N   N5        1.0  0.55520  0.26740  0.92240  1.0000 -0.241546245
N   N6        1.0  0.42980  0.25990  0.08950  1.0000 -0.241546245
N   N7        1.0  0.44480  0.76740  0.57760  1.0000 -0.241546245
N   N8        1.0  0.57020  0.75990  0.41050  1.0000 -0.241546245
O   O1        1.0  0.99100  0.43223  0.09673  1.0000 -0.5389467996
O   O2        1.0  0.84510  0.36700  0.04758  1.0000 -0.5507655215
O   O3        1.0  0.01750  0.43310  0.90482  1.0000 -0.5322474611
O   O4        1.0  0.15920  0.36280  0.95221  1.0000 -0.5389467996
O   O5        1.0  0.00900  0.93223  0.40327  1.0000 -0.5389467996
O   O6        1.0  0.15490  0.86700  0.45242  1.0000 -0.5507655215
O   O7        1.0  0.98250  0.93310  0.59518  1.0000 -0.5322474611
O   O8        1.0  0.84080  0.86280  0.54779  1.0000 -0.5389467996
O   O9        1.0  0.50900  0.56777  0.59673  1.0000 -0.5389467996
O   O10       1.0  0.65490  0.63300  0.54758  1.0000 -0.5507655215
O   O11       1.0  0.48250  0.56690  0.40482  1.0000 -0.5322474611
O   O12       1.0  0.34080  0.63720  0.45221  1.0000 -0.5389467996
O   O13       1.0  0.49100  0.06777  0.90327  1.0000 -0.5389467996
O   O14       1.0  0.34510  0.13300  0.95242  1.0000 -0.5507655215
O   O15       1.0  0.51750  0.06690  0.09518  1.0000 -0.5322474611
O   O16       1.0  0.65920  0.13720  0.04779  1.0000 -0.5389467996
