# DDEC6 charges by PACMAN v1.1 (https://github.com/mtap-research/PACMAN-charge/)
data_2017[Zn][dmp]3[ASR]1
_chemical_formula_sum              "Zn4 H72 C108 N16 O20"
_cell_length_a       11.0779
_cell_length_b       11.4217
_cell_length_c       22.03
_cell_angle_alpha    90
_cell_angle_beta     90
_cell_angle_gamma    90

_symmetry_space_group_name_H-M    "P 1"
_symmetry_Int_Tables_number       1

loop_
  _symmetry_equiv_pos_as_xyz
  'x, y, z'

loop_
  _atom_site_type_symbol
  _atom_site_label
  _atom_site_symmetry_multiplicity
  _atom_site_fract_x
  _atom_site_fract_y
  _atom_site_fract_z
  _atom_site_occupancy
  _atom_site_charge
Zn  Zn1       1.0  0.78478  0.75000  0.25000  1.0000 0.7564565126
Zn  Zn2       1.0  0.71522  0.75000  0.75000  1.0000 0.7564565126
Zn  Zn3       1.0  0.21522  0.25000  0.75000  1.0000 0.7564565126
Zn  Zn4       1.0  0.28478  0.25000  0.25000  1.0000 0.7564565126
H   H1        1.0  0.53070  0.06810  0.32850  1.0000 0.3010777976
H   H2        1.0  0.96930  0.06810  0.67150  1.0000 0.3010777976
H   H3        1.0  0.53070  0.43190  0.17150  1.0000 0.3010777976
H   H4        1.0  0.96930  0.43190  0.82850  1.0000 0.3010777976
H   H5        1.0  0.46930  0.93190  0.67150  1.0000 0.3010777976
H   H6        1.0  0.03070  0.93190  0.32850  1.0000 0.3010777976
H   H7        1.0  0.46930  0.56810  0.82850  1.0000 0.3010777976
H   H8        1.0  0.03070  0.56810  0.17150  1.0000 0.3010777976
H   H9        1.0  0.68610  0.78540  0.38830  1.0000 0.1330064606
H   H10       1.0  0.81390  0.78540  0.61170  1.0000 0.1330064606
H   H11       1.0  0.68610  0.71460  0.11170  1.0000 0.1330064606
H   H12       1.0  0.81390  0.71460  0.88830  1.0000 0.1330064606
H   H13       1.0  0.31390  0.21460  0.61170  1.0000 0.1330064606
H   H14       1.0  0.18610  0.21460  0.38830  1.0000 0.1330064606
H   H15       1.0  0.31390  0.28540  0.88830  1.0000 0.1330064606
H   H16       1.0  0.18610  0.28540  0.11170  1.0000 0.1330064606
H   H17       1.0  0.62560  0.97800  0.24460  1.0000 0.1193906605
H   H18       1.0  0.87440  0.97800  0.75540  1.0000 0.1193906605
H   H19       1.0  0.62560  0.52200  0.25540  1.0000 0.1193906605
H   H20       1.0  0.87440  0.52200  0.74460  1.0000 0.1193906605
H   H21       1.0  0.37440  0.02200  0.75540  1.0000 0.1193906605
H   H22       1.0  0.12560  0.02200  0.24460  1.0000 0.1193906605
H   H23       1.0  0.37440  0.47800  0.74460  1.0000 0.1193906605
H   H24       1.0  0.12560  0.47800  0.25540  1.0000 0.1193906605
H   H25       1.0  0.63420  0.84800  0.48870  1.0000 0.1193906605
H   H26       1.0  0.86580  0.84800  0.51130  1.0000 0.1193906605
H   H27       1.0  0.63420  0.65200  0.01130  1.0000 0.1193906605
H   H28       1.0  0.86580  0.65200  0.98870  1.0000 0.1193906605
H   H29       1.0  0.36580  0.15200  0.51130  1.0000 0.1193906605
H   H30       1.0  0.13420  0.15200  0.48870  1.0000 0.1193906605
H   H31       1.0  0.36580  0.34800  0.98870  1.0000 0.1193906605
H   H32       1.0  0.13420  0.34800  0.01130  1.0000 0.1193906605
H   H33       1.0  0.43430  0.10350  0.41690  1.0000 0.1193906605
H   H34       1.0  0.06570  0.10350  0.58310  1.0000 0.1193906605
H   H35       1.0  0.43430  0.39650  0.08310  1.0000 0.1193906605
H   H36       1.0  0.06570  0.39650  0.91690  1.0000 0.1193906605
H   H37       1.0  0.56570  0.89650  0.58310  1.0000 0.1193906605
H   H38       1.0  0.93430  0.89650  0.41690  1.0000 0.1193906605
H   H39       1.0  0.56570  0.60350  0.91690  1.0000 0.1193906605
H   H40       1.0  0.93430  0.60350  0.08310  1.0000 0.1193906605
H   H41       1.0  0.92610  0.03190  0.12090  1.0000 0.1113178705
H   H42       1.0  0.57390  0.03190  0.87910  1.0000 0.1113178705
H   H43       1.0  0.92610  0.46810  0.37910  1.0000 0.1113178705
H   H44       1.0  0.57390  0.46810  0.62090  1.0000 0.1113178705
H   H45       1.0  0.07390  0.96810  0.87910  1.0000 0.1113178705
H   H46       1.0  0.42610  0.96810  0.12090  1.0000 0.1113178705
H   H47       1.0  0.07390  0.53190  0.62090  1.0000 0.1113178705
H   H48       1.0  0.42610  0.53190  0.37910  1.0000 0.1113178705
H   H49       1.0  0.05110  0.12480  0.05280  1.0000 0.1113178705
H   H50       1.0  0.44890  0.12480  0.94720  1.0000 0.1113178705
H   H51       1.0  0.05110  0.37520  0.44720  1.0000 0.1113178705
H   H52       1.0  0.44890  0.37520  0.55280  1.0000 0.1113178705
H   H53       1.0  0.94890  0.87520  0.94720  1.0000 0.1113178705
H   H54       1.0  0.55110  0.87520  0.05280  1.0000 0.1113178705
H   H55       1.0  0.94890  0.62480  0.55280  1.0000 0.1113178705
H   H56       1.0  0.55110  0.62480  0.44720  1.0000 0.1113178705
H   H57       1.0  0.27010  0.84530  0.05280  1.0000 0.1113178705
H   H58       1.0  0.22990  0.84530  0.94720  1.0000 0.1113178705
H   H59       1.0  0.27010  0.65470  0.44720  1.0000 0.1113178705
H   H60       1.0  0.22990  0.65470  0.55280  1.0000 0.1113178705
H   H61       1.0  0.72990  0.15470  0.94720  1.0000 0.1113178705
H   H62       1.0  0.77010  0.15470  0.05280  1.0000 0.1113178705
H   H63       1.0  0.72990  0.34530  0.55280  1.0000 0.1113178705
H   H64       1.0  0.77010  0.34530  0.44720  1.0000 0.1113178705
H   H65       1.0  0.14460  0.75200  0.12000  1.0000 0.1193906605
H   H66       1.0  0.35540  0.75200  0.88000  1.0000 0.1193906605
H   H67       1.0  0.14460  0.74800  0.38000  1.0000 0.1193906605
H   H68       1.0  0.35540  0.74800  0.62000  1.0000 0.1193906605
H   H69       1.0  0.85540  0.24800  0.88000  1.0000 0.1193906605
H   H70       1.0  0.64460  0.24800  0.12000  1.0000 0.1193906605
H   H71       1.0  0.85540  0.25200  0.62000  1.0000 0.1193906605
H   H72       1.0  0.64460  0.25200  0.38000  1.0000 0.1193906605
C   C1        1.0  0.65850  0.84540  0.36330  1.0000 -0.1007409994
C   C2        1.0  0.84150  0.84540  0.63670  1.0000 -0.1007409994
C   C3        1.0  0.65850  0.65460  0.13670  1.0000 -0.1007409994
C   C4        1.0  0.84150  0.65460  0.86330  1.0000 -0.1007409994
C   C5        1.0  0.34150  0.15460  0.63670  1.0000 -0.1007409994
C   C6        1.0  0.15850  0.15460  0.36330  1.0000 -0.1007409994
C   C7        1.0  0.34150  0.34540  0.86330  1.0000 -0.1007409994
C   C8        1.0  0.15850  0.34540  0.13670  1.0000 -0.1007409994
C   C9        1.0  0.62590  0.95030  0.28430  1.0000 0.1630720902
C   C10       1.0  0.87410  0.95030  0.71570  1.0000 0.1630720902
C   C11       1.0  0.62590  0.54970  0.21570  1.0000 0.1630720902
C   C12       1.0  0.87410  0.54970  0.78430  1.0000 0.1630720902
C   C13       1.0  0.37410  0.04970  0.71570  1.0000 0.1630720902
C   C14       1.0  0.12590  0.04970  0.28430  1.0000 0.1630720902
C   C15       1.0  0.37410  0.45030  0.78430  1.0000 0.1630720902
C   C16       1.0  0.12590  0.45030  0.21570  1.0000 0.1630720902
C   C17       1.0  0.59040  0.93810  0.38240  1.0000 0.1113178705
C   C18       1.0  0.90960  0.93810  0.61760  1.0000 0.1113178705
C   C19       1.0  0.59040  0.56190  0.11760  1.0000 0.1113178705
C   C20       1.0  0.90960  0.56190  0.88240  1.0000 0.1113178705
C   C21       1.0  0.40960  0.06190  0.61760  1.0000 0.1113178705
C   C22       1.0  0.09040  0.06190  0.38240  1.0000 0.1113178705
C   C23       1.0  0.40960  0.43810  0.88240  1.0000 0.1113178705
C   C24       1.0  0.09040  0.43810  0.11760  1.0000 0.1113178705
C   C25       1.0  0.54260  0.97060  0.44200  1.0000 0.0547934021
C   C26       1.0  0.95740  0.97060  0.55800  1.0000 0.0547934021
C   C27       1.0  0.54260  0.52940  0.05800  1.0000 0.0547934021
C   C28       1.0  0.95740  0.52940  0.94200  1.0000 0.0547934021
C   C29       1.0  0.45740  0.02940  0.55800  1.0000 0.0547934021
C   C30       1.0  0.04260  0.02940  0.44200  1.0000 0.0547934021
C   C31       1.0  0.45740  0.47060  0.94200  1.0000 0.0547934021
C   C32       1.0  0.04260  0.47060  0.05800  1.0000 0.0547934021
C   C33       1.0  0.58000  0.90960  0.49300  1.0000 -0.1309383534
C   C34       1.0  0.92000  0.90960  0.50700  1.0000 -0.1309383534
C   C35       1.0  0.58000  0.59040  0.00700  1.0000 -0.1309383534
C   C36       1.0  0.92000  0.59040  0.99300  1.0000 -0.1309383534
C   C37       1.0  0.42000  0.09040  0.50700  1.0000 -0.1309383534
C   C38       1.0  0.08000  0.09040  0.49300  1.0000 -0.1309383534
C   C39       1.0  0.42000  0.40960  0.99300  1.0000 -0.1309383534
C   C40       1.0  0.08000  0.40960  0.00700  1.0000 -0.1309383534
C   C41       1.0  0.46130  0.06140  0.45040  1.0000 -0.1388497095
C   C42       1.0  0.03870  0.06140  0.54960  1.0000 -0.1388497095
C   C43       1.0  0.46130  0.43860  0.04960  1.0000 -0.1388497095
C   C44       1.0  0.03870  0.43860  0.95040  1.0000 -0.1388497095
C   C45       1.0  0.53870  0.93860  0.54960  1.0000 -0.1388497095
C   C46       1.0  0.96130  0.93860  0.45040  1.0000 -0.1388497095
C   C47       1.0  0.53870  0.56140  0.95040  1.0000 -0.1388497095
C   C48       1.0  0.96130  0.56140  0.04960  1.0000 -0.1388497095
C   C49       1.0  0.93770  0.81890  0.16991  1.0000 0.550072867
C   C50       1.0  0.56230  0.81890  0.83009  1.0000 0.550072867
C   C51       1.0  0.93770  0.68110  0.33009  1.0000 0.550072867
C   C52       1.0  0.56230  0.68110  0.66991  1.0000 0.550072867
C   C53       1.0  0.06230  0.18110  0.83009  1.0000 0.550072867
C   C54       1.0  0.43770  0.18110  0.16991  1.0000 0.550072867
C   C55       1.0  0.06230  0.31890  0.66991  1.0000 0.550072867
C   C56       1.0  0.43770  0.31890  0.33009  1.0000 0.550072867
C   C57       1.0  0.02020  0.88070  0.12626  1.0000 -0.0141497426
C   C58       1.0  0.47980  0.88070  0.87374  1.0000 -0.0141497426
C   C59       1.0  0.02020  0.61930  0.37374  1.0000 -0.0141497426
C   C60       1.0  0.47980  0.61930  0.62626  1.0000 -0.0141497426
C   C61       1.0  0.97980  0.11930  0.87374  1.0000 -0.0141497426
C   C62       1.0  0.52020  0.11930  0.12626  1.0000 -0.0141497426
C   C63       1.0  0.97980  0.38070  0.62626  1.0000 -0.0141497426
C   C64       1.0  0.52020  0.38070  0.37374  1.0000 -0.0141497426
C   C65       1.0  0.99450  0.99370  0.10650  1.0000 -0.1095838877
C   C66       1.0  0.50550  0.99370  0.89350  1.0000 -0.1095838877
C   C67       1.0  0.99450  0.50630  0.39350  1.0000 -0.1095838877
C   C68       1.0  0.50550  0.50630  0.60650  1.0000 -0.1095838877
C   C69       1.0  0.00550  0.00630  0.89350  1.0000 -0.1095838877
C   C70       1.0  0.49450  0.00630  0.10650  1.0000 -0.1095838877
C   C71       1.0  0.00550  0.49370  0.60650  1.0000 -0.1095838877
C   C72       1.0  0.49450  0.49370  0.39350  1.0000 -0.1095838877
C   C73       1.0  0.06920  0.04940  0.06570  1.0000 -0.1095838877
C   C74       1.0  0.43080  0.04940  0.93430  1.0000 -0.1095838877
C   C75       1.0  0.06920  0.45060  0.43430  1.0000 -0.1095838877
C   C76       1.0  0.43080  0.45060  0.56570  1.0000 -0.1095838877
C   C77       1.0  0.93080  0.95060  0.93430  1.0000 -0.1095838877
C   C78       1.0  0.56920  0.95060  0.06570  1.0000 -0.1095838877
C   C79       1.0  0.93080  0.54940  0.56570  1.0000 -0.1095838877
C   C80       1.0  0.56920  0.54940  0.43430  1.0000 -0.1095838877
C   C81       1.0  0.17200  0.99310  0.04380  1.0000 0.0048797182
C   C82       1.0  0.32800  0.99310  0.95620  1.0000 0.0048797182
C   C83       1.0  0.17200  0.50690  0.45620  1.0000 0.0048797182
C   C84       1.0  0.32800  0.50690  0.54380  1.0000 0.0048797182
C   C85       1.0  0.82800  0.00690  0.95620  1.0000 0.0048797182
C   C86       1.0  0.67200  0.00690  0.04380  1.0000 0.0048797182
C   C87       1.0  0.82800  0.49310  0.54380  1.0000 0.0048797182
C   C88       1.0  0.67200  0.49310  0.45620  1.0000 0.0048797182
C   C89       1.0  0.19980  0.88220  0.06570  1.0000 -0.1309383534
C   C90       1.0  0.30020  0.88220  0.93430  1.0000 -0.1309383534
C   C91       1.0  0.19980  0.61780  0.43430  1.0000 -0.1309383534
C   C92       1.0  0.30020  0.61780  0.56570  1.0000 -0.1309383534
C   C93       1.0  0.80020  0.11780  0.93430  1.0000 -0.1309383534
C   C94       1.0  0.69980  0.11780  0.06570  1.0000 -0.1309383534
C   C95       1.0  0.80020  0.38220  0.56570  1.0000 -0.1309383534
C   C96       1.0  0.69980  0.38220  0.43430  1.0000 -0.1309383534
C   C97       1.0  0.12500  0.82650  0.10610  1.0000 -0.1095838877
C   C98       1.0  0.37500  0.82650  0.89390  1.0000 -0.1095838877
C   C99       1.0  0.12500  0.67350  0.39390  1.0000 -0.1095838877
C   C100      1.0  0.37500  0.67350  0.60610  1.0000 -0.1095838877
C   C101      1.0  0.87500  0.17350  0.89390  1.0000 -0.1095838877
C   C102      1.0  0.62500  0.17350  0.10610  1.0000 -0.1095838877
C   C103      1.0  0.87500  0.32650  0.60610  1.0000 -0.1095838877
C   C104      1.0  0.62500  0.32650  0.39390  1.0000 -0.1095838877
C   C105      1.0  0.25000  0.05860  0.00000  1.0000 0.3444156829
C   C106      1.0  0.25000  0.44140  0.50000  1.0000 0.3444156829
C   C107      1.0  0.75000  0.94140  0.00000  1.0000 0.3444156829
C   C108      1.0  0.75000  0.55860  0.50000  1.0000 0.3444156829
N   N1        1.0  0.68050  0.85320  0.30175  1.0000 -0.2845421549
N   N2        1.0  0.81950  0.85320  0.69825  1.0000 -0.2845421549
N   N3        1.0  0.68050  0.64680  0.19825  1.0000 -0.2845421549
N   N4        1.0  0.81950  0.64680  0.80175  1.0000 -0.2845421549
N   N5        1.0  0.31950  0.14680  0.69825  1.0000 -0.2845421549
N   N6        1.0  0.18050  0.14680  0.30175  1.0000 -0.2845421549
N   N7        1.0  0.31950  0.35320  0.80175  1.0000 -0.2845421549
N   N8        1.0  0.18050  0.35320  0.19825  1.0000 -0.2845421549
N   N9        1.0  0.57100  0.00390  0.33052  1.0000 -0.2357277203
N   N10       1.0  0.92900  0.00390  0.66948  1.0000 -0.2357277203
N   N11       1.0  0.57100  0.49610  0.16948  1.0000 -0.2357277203
N   N12       1.0  0.92900  0.49610  0.83052  1.0000 -0.2357277203
N   N13       1.0  0.42900  0.99610  0.66948  1.0000 -0.2357277203
N   N14       1.0  0.07100  0.99610  0.33052  1.0000 -0.2357277203
N   N15       1.0  0.42900  0.50390  0.83052  1.0000 -0.2357277203
N   N16       1.0  0.07100  0.50390  0.16948  1.0000 -0.2357277203
O   O1        1.0  0.84860  0.87440  0.19120  1.0000 -0.5374121484
O   O2        1.0  0.65140  0.87440  0.80880  1.0000 -0.5374121484
O   O3        1.0  0.84860  0.62560  0.30880  1.0000 -0.5374121484
O   O4        1.0  0.65140  0.62560  0.69120  1.0000 -0.5374121484
O   O5        1.0  0.15140  0.12560  0.80880  1.0000 -0.5374121484
O   O6        1.0  0.34860  0.12560  0.19120  1.0000 -0.5374121484
O   O7        1.0  0.15140  0.37440  0.69120  1.0000 -0.5374121484
O   O8        1.0  0.34860  0.37440  0.30880  1.0000 -0.5374121484
O   O9        1.0  0.95790  0.71390  0.18382  1.0000 -0.5692412075
O   O10       1.0  0.54210  0.71390  0.81618  1.0000 -0.5692412075
O   O11       1.0  0.95790  0.78610  0.31618  1.0000 -0.5692412075
O   O12       1.0  0.54210  0.78610  0.68382  1.0000 -0.5692412075
O   O13       1.0  0.04210  0.28610  0.81618  1.0000 -0.5692412075
O   O14       1.0  0.45790  0.28610  0.18382  1.0000 -0.5692412075
O   O15       1.0  0.04210  0.21390  0.68382  1.0000 -0.5692412075
O   O16       1.0  0.45790  0.21390  0.31618  1.0000 -0.5692412075
O   O17       1.0  0.25000  0.16590  0.00000  1.0000 -0.4177610096
O   O18       1.0  0.25000  0.33410  0.50000  1.0000 -0.4177610096
O   O19       1.0  0.75000  0.83410  0.00000  1.0000 -0.4177610096
O   O20       1.0  0.75000  0.66590  0.50000  1.0000 -0.4177610096
