# DDEC6 charges by PACMAN v1.1 (https://github.com/mtap-research/PACMAN-charge/)
data_d1dt01937f2_FSR_pacman
_symmetry_space_group_name_H-M   'P 1'
_cell_length_a   6.55500000
_cell_length_b   25.56000000
_cell_length_c   28.14000000
_cell_angle_alpha   90.00000000
_cell_angle_beta   90.00000000
_cell_angle_gamma   90.00000000
_symmetry_Int_Tables_number   1
_chemical_formula_structural   ZnH26C39S2N2(O2F3)2
_chemical_formula_sum   'Zn4 H104 C156 S8 N8 O16 F24'
_cell_volume   4714.73881200
_cell_formula_units_Z   4
loop_
 _symmetry_equiv_pos_site_id
 _symmetry_equiv_pos_as_xyz
  1  'x, y, z'
loop_
 _atom_site_type_symbol
 _atom_site_label
 _atom_site_symmetry_multiplicity
 _atom_site_fract_x
 _atom_site_fract_y
 _atom_site_fract_z
 _atom_site_occupancy
 _atom_site_charge
Zn  Zn1  1  0.42400000  0.45020000  0.25480000  1.0 0.6866683416
Zn  Zn2  1  0.07600000  0.54980000  0.75480000  1.0 0.6866683416
Zn  Zn3  1  0.57600000  0.95020000  0.24520000  1.0 0.6866683416
Zn  Zn4  1  0.92400000  0.04980000  0.74520000  1.0 0.6866683416
H  H1  1  0.73200000  0.39090000  0.63370000  1.0 0.1304878547
H  H2  1  0.85760000  0.39580000  0.68120000  1.0 0.1184496119
H  H3  1  0.24270000  0.31740000  0.46870000  1.0 0.1304878547
H  H4  1  0.29670000  0.37270000  0.48980000  1.0 0.1304878547
H  H5  1  0.26830000  0.45140000  0.73960000  1.0 0.1093825068
H  H6  1  0.53690000  0.41610000  0.69650000  1.0 0.1304878547
H  H7  1  0.71600000  0.56070000  0.65920000  1.0 0.1304878547
H  H8  1  0.44740000  0.59600000  0.70220000  1.0 0.1093825068
H  H9  1  0.01730000  0.56930000  0.33580000  1.0 0.1184496119
H  H10  1  0.20780000  0.64390000  0.32040000  1.0 0.1184496119
H  H11  1  0.75900000  0.69830000  0.23660000  1.0 0.1184496119
H  H12  1  0.56860000  0.62370000  0.25200000  1.0 0.1184496119
H  H13  1  0.56730000  0.39490000  0.34480000  1.0 0.1093825068
H  H14  1  0.02750000  0.45870000  0.31000000  1.0 0.1093825068
H  H15  1  0.88020000  0.42090000  0.37660000  1.0 0.1304878547
H  H16  1  0.42000000  0.35710000  0.41140000  1.0 0.1184496119
H  H17  1  0.37510000  0.70120000  0.30130000  1.0 0.1093825068
H  H18  1  0.53640000  0.78200000  0.30120000  1.0 0.1304878547
H  H19  1  0.05500000  0.84500000  0.23390000  1.0 0.1093825068
H  H20  1  0.89380000  0.76430000  0.23400000  1.0 0.1184496119
H  H21  1  0.26760000  0.43750000  0.54720000  1.0 0.1372175477
H  H22  1  0.35010000  0.40120000  0.58780000  1.0 0.1372175477
H  H23  1  0.39660000  0.46130000  0.58880000  1.0 0.1372175477
H  H24  1  0.58930000  0.37540000  0.53520000  1.0 0.1372175477
H  H25  1  0.73770000  0.35900000  0.57630000  1.0 0.1304878547
H  H26  1  0.64100000  0.31620000  0.54330000  1.0 0.1184496119
H  H27  1  0.76800000  0.60910000  0.13370000  1.0 0.1304878547
H  H28  1  0.64240000  0.60420000  0.18120000  1.0 0.1184496119
H  H29  1  0.25730000  0.68260000  0.96870000  1.0 0.1304878547
H  H30  1  0.20330000  0.62730000  0.98980000  1.0 0.1304878547
H  H31  1  0.23170000  0.54860000  0.23960000  1.0 0.1093825068
H  H32  1  0.96310000  0.58390000  0.19650000  1.0 0.1304878547
H  H33  1  0.78400000  0.43930000  0.15920000  1.0 0.1304878547
H  H34  1  0.05260000  0.40400000  0.20220000  1.0 0.1093825068
H  H35  1  0.48270000  0.43070000  0.83580000  1.0 0.1184496119
H  H36  1  0.29220000  0.35610000  0.82040000  1.0 0.1184496119
H  H37  1  0.74100000  0.30170000  0.73660000  1.0 0.1184496119
H  H38  1  0.93140000  0.37630000  0.75200000  1.0 0.1184496119
H  H39  1  0.93270000  0.60510000  0.84480000  1.0 0.1093825068
H  H40  1  0.47250000  0.54130000  0.81000000  1.0 0.1093825068
H  H41  1  0.61980000  0.57910000  0.87660000  1.0 0.1304878547
H  H42  1  0.08000000  0.64290000  0.91140000  1.0 0.1184496119
H  H43  1  0.12490000  0.29880000  0.80130000  1.0 0.1093825068
H  H44  1  0.96360000  0.21800000  0.80120000  1.0 0.1304878547
H  H45  1  0.44500000  0.15500000  0.73390000  1.0 0.1093825068
H  H46  1  0.60620000  0.23570000  0.73400000  1.0 0.1184496119
H  H47  1  0.23240000  0.56250000  0.04720000  1.0 0.1372175477
H  H48  1  0.14990000  0.59880000  0.08780000  1.0 0.1372175477
H  H49  1  0.10340000  0.53870000  0.08880000  1.0 0.1372175477
H  H50  1  0.91070000  0.62460000  0.03520000  1.0 0.1372175477
H  H51  1  0.76230000  0.64100000  0.07630000  1.0 0.1304878547
H  H52  1  0.85900000  0.68380000  0.04330000  1.0 0.1184496119
H  H53  1  0.26800000  0.89090000  0.86630000  1.0 0.1304878547
H  H54  1  0.14240000  0.89580000  0.81880000  1.0 0.1184496119
H  H55  1  0.75730000  0.81740000  0.03130000  1.0 0.1304878547
H  H56  1  0.70330000  0.87270000  0.01020000  1.0 0.1304878547
H  H57  1  0.73170000  0.95140000  0.76040000  1.0 0.1093825068
H  H58  1  0.46310000  0.91610000  0.80350000  1.0 0.1304878547
H  H59  1  0.28400000  0.06070000  0.84080000  1.0 0.1304878547
H  H60  1  0.55260000  0.09600000  0.79780000  1.0 0.1093825068
H  H61  1  0.98270000  0.06930000  0.16420000  1.0 0.1184496119
H  H62  1  0.79220000  0.14390000  0.17960000  1.0 0.1184496119
H  H63  1  0.24100000  0.19830000  0.26340000  1.0 0.1184496119
H  H64  1  0.43140000  0.12370000  0.24800000  1.0 0.1184496119
H  H65  1  0.43270000  0.89490000  0.15520000  1.0 0.1093825068
H  H66  1  0.97250000  0.95870000  0.19000000  1.0 0.1093825068
H  H67  1  0.11980000  0.92090000  0.12340000  1.0 0.1304878547
H  H68  1  0.58000000  0.85710000  0.08860000  1.0 0.1184496119
H  H69  1  0.62490000  0.20120000  0.19870000  1.0 0.1093825068
H  H70  1  0.46360000  0.28200000  0.19880000  1.0 0.1304878547
H  H71  1  0.94500000  0.34500000  0.26610000  1.0 0.1093825068
H  H72  1  0.10620000  0.26430000  0.26600000  1.0 0.1184496119
H  H73  1  0.73240000  0.93750000  0.95280000  1.0 0.1372175477
H  H74  1  0.64990000  0.90120000  0.91220000  1.0 0.1372175477
H  H75  1  0.60340000  0.96130000  0.91120000  1.0 0.1372175477
H  H76  1  0.41070000  0.87540000  0.96480000  1.0 0.1372175477
H  H77  1  0.26230000  0.85900000  0.92370000  1.0 0.1304878547
H  H78  1  0.35900000  0.81620000  0.95670000  1.0 0.1184496119
H  H79  1  0.23200000  0.10910000  0.36630000  1.0 0.1304878547
H  H80  1  0.35760000  0.10420000  0.31880000  1.0 0.1184496119
H  H81  1  0.74270000  0.18260000  0.53130000  1.0 0.1304878547
H  H82  1  0.79670000  0.12730000  0.51020000  1.0 0.1304878547
H  H83  1  0.76830000  0.04860000  0.26040000  1.0 0.1093825068
H  H84  1  0.03690000  0.08390000  0.30350000  1.0 0.1304878547
H  H85  1  0.21600000  0.93930000  0.34080000  1.0 0.1304878547
H  H86  1  0.94740000  0.90400000  0.29780000  1.0 0.1184496119
H  H87  1  0.51730000  0.93070000  0.66420000  1.0 0.1184496119
H  H88  1  0.70780000  0.85610000  0.67960000  1.0 0.1184496119
H  H89  1  0.25900000  0.80170000  0.76340000  1.0 0.1184496119
H  H90  1  0.06860000  0.87630000  0.74800000  1.0 0.1184496119
H  H91  1  0.06730000  0.10510000  0.65520000  1.0 0.1093825068
H  H92  1  0.52750000  0.04130000  0.69000000  1.0 0.1093825068
H  H93  1  0.38020000  0.07910000  0.62340000  1.0 0.1304878547
H  H94  1  0.92000000  0.14290000  0.58860000  1.0 0.1184496119
H  H95  1  0.87510000  0.79880000  0.69870000  1.0 0.1093825068
H  H96  1  0.03640000  0.71800000  0.69880000  1.0 0.1304878547
H  H97  1  0.55500000  0.65500000  0.76610000  1.0 0.1093825068
H  H98  1  0.39380000  0.73570000  0.76600000  1.0 0.1184496119
H  H99  1  0.76760000  0.06250000  0.45280000  1.0 0.1372175477
H  H100  1  0.85010000  0.09880000  0.41220000  1.0 0.1372175477
H  H101  1  0.89660000  0.03870000  0.41120000  1.0 0.1372175477
H  H102  1  0.08930000  0.12460000  0.46480000  1.0 0.1372175477
H  H103  1  0.23770000  0.14100000  0.42370000  1.0 0.1304878547
H  H104  1  0.14100000  0.18380000  0.45670000  1.0 0.1184496119
C  C1  1  0.82000000  0.46300000  0.64800000  1.0 -0.0397038794
C  C2  1  0.84700000  0.40800000  0.64900000  1.0 -0.2605909355
C  C3  1  0.03000000  0.39600000  0.62300000  1.0 0.0023097374
C  C4  1  0.11500000  0.44400000  0.60700000  1.0 0.0459017507
C  C5  1  0.86300000  0.35600000  0.51300000  1.0 0.0407602914
C  C6  1  0.06500000  0.33800000  0.52200000  1.0 0.0023097374
C  C7  1  0.18500000  0.34900000  0.48100000  1.0 -0.2714024879
C  C8  1  0.05800000  0.37400000  0.44700000  1.0 -0.0220671859
C  C9  1  0.35800000  0.47300000  0.72300000  1.0 0.0407602914
C  C10  1  0.51900000  0.45200000  0.69800000  1.0 -0.188442849
C  C11  1  0.65300000  0.48500000  0.67400000  1.0 0.1023375129
C  C12  1  0.62600000  0.53900000  0.67500000  1.0 -0.188442849
C  C13  1  0.46500000  0.56000000  0.70100000  1.0 0.0903780309
C  C14  1  0.70100000  0.53700000  0.29600000  1.0 0.4592261962
C  C15  1  0.96600000  0.59500000  0.31600000  1.0 -0.1008563045
C  C16  1  0.08000000  0.64000000  0.30700000  1.0 -0.1490395185
C  C17  1  0.00200000  0.67800000  0.27700000  1.0 0.1023375129
C  C18  1  0.81100000  0.67200000  0.25600000  1.0 -0.1402256921
C  C19  1  0.69700000  0.62800000  0.26600000  1.0 -0.1008563045
C  C20  1  0.77400000  0.58900000  0.29500000  1.0 -0.0891311117
C  C21  1  0.43000000  0.40000000  0.35100000  1.0 0.0903780309
C  C22  1  0.10600000  0.43800000  0.33000000  1.0 0.0903780309
C  C23  1  0.01800000  0.41600000  0.37000000  1.0 -0.188442849
C  C24  1  0.13500000  0.38500000  0.40100000  1.0 0.1093825068
C  C25  1  0.34100000  0.37700000  0.39100000  1.0 -0.188442849
C  C26  1  0.31100000  0.73000000  0.28800000  1.0 -0.1230392404
C  C27  1  0.40800000  0.77800000  0.28800000  1.0 -0.0891311117
C  C28  1  0.31200000  0.82200000  0.26800000  1.0 -0.0560560063
C  C29  1  0.11900000  0.81600000  0.24700000  1.0 -0.0839410689
C  C30  1  0.02300000  0.76800000  0.24700000  1.0 -0.1139174275
C  C31  1  0.11800000  0.72500000  0.26800000  1.0 0.0722252928
C  C32  1  0.10100000  0.34500000  0.61200000  1.0 0.0093373793
C  C33  1  0.12400000  0.30500000  0.64700000  1.0 0.1372175477
C  C34  1  0.17700000  0.25800000  0.62400000  1.0 0.0093373793
C  C35  1  0.18800000  0.26800000  0.57400000  1.0 0.3460909851
C  C36  1  0.14100000  0.32200000  0.56700000  1.0 -0.2418145299
C  C37  1  0.29700000  0.43500000  0.58100000  1.0 -0.4377829157
C  C38  1  0.69400000  0.35100000  0.54500000  1.0 -0.4590370603
C  C39  1  0.40900000  0.87200000  0.26800000  1.0 0.483129134
C  C40  1  0.68000000  0.53700000  0.14800000  1.0 -0.0397038794
C  C41  1  0.65300000  0.59200000  0.14900000  1.0 -0.2605909355
C  C42  1  0.47000000  0.60400000  0.12300000  1.0 0.0023097374
C  C43  1  0.38500000  0.55600000  0.10700000  1.0 0.0459017507
C  C44  1  0.63700000  0.64400000  0.01300000  1.0 0.0407602914
C  C45  1  0.43500000  0.66200000  0.02200000  1.0 0.0093373793
C  C46  1  0.31500000  0.65100000  0.98100000  1.0 -0.2714024879
C  C47  1  0.44200000  0.62600000  0.94700000  1.0 -0.0220671859
C  C48  1  0.14200000  0.52700000  0.22300000  1.0 0.0407602914
C  C49  1  0.98100000  0.54800000  0.19800000  1.0 -0.188442849
C  C50  1  0.84700000  0.51500000  0.17400000  1.0 0.1023375129
C  C51  1  0.87400000  0.46100000  0.17500000  1.0 -0.188442849
C  C52  1  0.03500000  0.44000000  0.20100000  1.0 0.0903780309
C  C53  1  0.79900000  0.46300000  0.79600000  1.0 0.4592261962
C  C54  1  0.53400000  0.40500000  0.81600000  1.0 -0.1008563045
C  C55  1  0.42000000  0.36000000  0.80700000  1.0 -0.1490395185
C  C56  1  0.49800000  0.32200000  0.77700000  1.0 0.0903780309
C  C57  1  0.68900000  0.32800000  0.75600000  1.0 -0.1402256921
C  C58  1  0.80300000  0.37200000  0.76600000  1.0 -0.1008563045
C  C59  1  0.72600000  0.41100000  0.79500000  1.0 -0.0891311117
C  C60  1  0.07000000  0.60000000  0.85100000  1.0 0.0903780309
C  C61  1  0.39400000  0.56200000  0.83000000  1.0 0.0903780309
C  C62  1  0.48200000  0.58400000  0.87000000  1.0 -0.188442849
C  C63  1  0.36500000  0.61500000  0.90100000  1.0 0.1093825068
C  C64  1  0.15900000  0.62300000  0.89100000  1.0 -0.188442849
C  C65  1  0.18900000  0.27000000  0.78800000  1.0 -0.1230392404
C  C66  1  0.09200000  0.22200000  0.78800000  1.0 -0.0891311117
C  C67  1  0.18800000  0.17800000  0.76800000  1.0 -0.0560560063
C  C68  1  0.38100000  0.18400000  0.74700000  1.0 -0.0839410689
C  C69  1  0.47700000  0.23200000  0.74700000  1.0 -0.1139174275
C  C70  1  0.38200000  0.27500000  0.76800000  1.0 0.0722252928
C  C71  1  0.39900000  0.65500000  0.11200000  1.0 0.0093373793
C  C72  1  0.37600000  0.69500000  0.14700000  1.0 0.1372175477
C  C73  1  0.32300000  0.74200000  0.12400000  1.0 0.0093373793
C  C74  1  0.31200000  0.73200000  0.07400000  1.0 0.3460909851
C  C75  1  0.35900000  0.67800000  0.06700000  1.0 -0.2418145299
C  C76  1  0.20300000  0.56500000  0.08100000  1.0 -0.4377829157
C  C77  1  0.80600000  0.64900000  0.04500000  1.0 -0.4590370603
C  C78  1  0.09100000  0.12800000  0.76800000  1.0 0.483129134
C  C79  1  0.18000000  0.96300000  0.85200000  1.0 -0.0397038794
C  C80  1  0.15300000  0.90800000  0.85100000  1.0 -0.2605909355
C  C81  1  0.97000000  0.89600000  0.87700000  1.0 0.0023097374
C  C82  1  0.88500000  0.94400000  0.89300000  1.0 0.0459017507
C  C83  1  0.13700000  0.85600000  0.98700000  1.0 0.0407602914
C  C84  1  0.93500000  0.83800000  0.97800000  1.0 0.0023097374
C  C85  1  0.81500000  0.84900000  0.01900000  1.0 -0.2714024879
C  C86  1  0.94200000  0.87400000  0.05300000  1.0 -0.0220671859
C  C87  1  0.64200000  0.97300000  0.77700000  1.0 0.0407602914
C  C88  1  0.48100000  0.95200000  0.80200000  1.0 -0.188442849
C  C89  1  0.34700000  0.98500000  0.82600000  1.0 0.1023375129
C  C90  1  0.37400000  0.03900000  0.82500000  1.0 -0.188442849
C  C91  1  0.53500000  0.06000000  0.79900000  1.0 0.0903780309
C  C92  1  0.29900000  0.03700000  0.20400000  1.0 0.4592261962
C  C93  1  0.03400000  0.09500000  0.18400000  1.0 -0.1008563045
C  C94  1  0.92000000  0.14000000  0.19300000  1.0 -0.1490395185
C  C95  1  0.99800000  0.17800000  0.22300000  1.0 0.0903780309
C  C96  1  0.18900000  0.17200000  0.24400000  1.0 -0.1402256921
C  C97  1  0.30300000  0.12800000  0.23400000  1.0 -0.1008563045
C  C98  1  0.22600000  0.08900000  0.20500000  1.0 -0.0891311117
C  C99  1  0.57000000  0.90000000  0.14900000  1.0 0.0903780309
C  C100  1  0.89400000  0.93800000  0.17000000  1.0 0.0903780309
C  C101  1  0.98200000  0.91600000  0.13000000  1.0 -0.188442849
C  C102  1  0.86500000  0.88500000  0.09900000  1.0 0.1093825068
C  C103  1  0.65900000  0.87700000  0.10900000  1.0 -0.188442849
C  C104  1  0.68900000  0.23000000  0.21200000  1.0 -0.1230392404
C  C105  1  0.59200000  0.27800000  0.21200000  1.0 -0.0891311117
C  C106  1  0.68800000  0.32200000  0.23200000  1.0 -0.0560560063
C  C107  1  0.88100000  0.31600000  0.25300000  1.0 -0.0839410689
C  C108  1  0.97700000  0.26800000  0.25300000  1.0 -0.1139174275
C  C109  1  0.88200000  0.22500000  0.23200000  1.0 0.0722252928
C  C110  1  0.89900000  0.84500000  0.88800000  1.0 0.0093373793
C  C111  1  0.87600000  0.80500000  0.85300000  1.0 0.1372175477
C  C112  1  0.82300000  0.75800000  0.87600000  1.0 0.0093373793
C  C113  1  0.81200000  0.76800000  0.92600000  1.0 0.3460909851
C  C114  1  0.85900000  0.82200000  0.93300000  1.0 -0.2418145299
C  C115  1  0.70300000  0.93500000  0.91900000  1.0 -0.4377829157
C  C116  1  0.30600000  0.85100000  0.95500000  1.0 -0.4590370603
C  C117  1  0.59100000  0.37200000  0.23200000  1.0 0.483129134
C  C118  1  0.32000000  0.03700000  0.35200000  1.0 -0.0397038794
C  C119  1  0.34700000  0.09200000  0.35100000  1.0 -0.2605909355
C  C120  1  0.53000000  0.10400000  0.37700000  1.0 0.0023097374
C  C121  1  0.61500000  0.05600000  0.39300000  1.0 0.0459017507
C  C122  1  0.36300000  0.14400000  0.48700000  1.0 0.0407602914
C  C123  1  0.56500000  0.16200000  0.47800000  1.0 0.0023097374
C  C124  1  0.68500000  0.15100000  0.51900000  1.0 -0.2714024879
C  C125  1  0.55800000  0.12600000  0.55300000  1.0 -0.0220671859
C  C126  1  0.85800000  0.02700000  0.27700000  1.0 0.0407602914
C  C127  1  0.01900000  0.04800000  0.30200000  1.0 -0.188442849
C  C128  1  0.15300000  0.01500000  0.32600000  1.0 0.1023375129
C  C129  1  0.12600000  0.96100000  0.32500000  1.0 -0.188442849
C  C130  1  0.96500000  0.94000000  0.29900000  1.0 0.0903780309
C  C131  1  0.20100000  0.96300000  0.70400000  1.0 0.4592261962
C  C132  1  0.46600000  0.90500000  0.68400000  1.0 -0.1008563045
C  C133  1  0.58000000  0.86000000  0.69300000  1.0 -0.1490395185
C  C134  1  0.50200000  0.82200000  0.72300000  1.0 0.0903780309
C  C135  1  0.31100000  0.82800000  0.74400000  1.0 -0.1402256921
C  C136  1  0.19700000  0.87200000  0.73400000  1.0 -0.1008563045
C  C137  1  0.27400000  0.91100000  0.70500000  1.0 -0.0891311117
C  C138  1  0.93000000  0.10000000  0.64900000  1.0 0.0903780309
C  C139  1  0.60600000  0.06200000  0.67000000  1.0 0.0903780309
C  C140  1  0.51800000  0.08400000  0.63000000  1.0 -0.188442849
C  C141  1  0.63500000  0.11500000  0.59900000  1.0 0.1093825068
C  C142  1  0.84100000  0.12300000  0.60900000  1.0 -0.188442849
C  C143  1  0.81100000  0.77000000  0.71200000  1.0 -0.1230392404
C  C144  1  0.90800000  0.72200000  0.71200000  1.0 -0.0891311117
C  C145  1  0.81200000  0.67800000  0.73200000  1.0 -0.0560560063
C  C146  1  0.61900000  0.68400000  0.75300000  1.0 -0.0839410689
C  C147  1  0.52300000  0.73200000  0.75300000  1.0 -0.1139174275
C  C148  1  0.61800000  0.77500000  0.73200000  1.0 0.0722252928
C  C149  1  0.60100000  0.15500000  0.38800000  1.0 0.0093373793
C  C150  1  0.62400000  0.19500000  0.35300000  1.0 0.1372175477
C  C151  1  0.67700000  0.24200000  0.37600000  1.0 0.0093373793
C  C152  1  0.68800000  0.23200000  0.42600000  1.0 0.3460909851
C  C153  1  0.64100000  0.17800000  0.43300000  1.0 -0.2418145299
C  C154  1  0.79700000  0.06500000  0.41900000  1.0 -0.4377829157
C  C155  1  0.19400000  0.14900000  0.45500000  1.0 -0.4590370603
C  C156  1  0.90900000  0.62800000  0.73200000  1.0 0.483129134
S  S1  1  0.98500000  0.48500000  0.62200000  1.0 0.0840812825
S  S2  1  0.85800000  0.37740000  0.46600000  1.0 0.1023375129
S  S3  1  0.51500000  0.51500000  0.12200000  1.0 0.0840812825
S  S4  1  0.64200000  0.62260000  0.96600000  1.0 0.1023375129
S  S5  1  0.01500000  0.98500000  0.87800000  1.0 0.0840812825
S  S6  1  0.14200000  0.87740000  0.03400000  1.0 0.1023375129
S  S7  1  0.48500000  0.01500000  0.37800000  1.0 0.0840812825
S  S8  1  0.35800000  0.12260000  0.53400000  1.0 0.1023375129
N  N1  1  0.33100000  0.52700000  0.72500000  1.0 -0.3183138468
N  N2  1  0.31200000  0.43100000  0.32100000  1.0 -0.2605909355
N  N3  1  0.16900000  0.47300000  0.22500000  1.0 -0.3183138468
N  N4  1  0.18800000  0.56900000  0.82100000  1.0 -0.2714024879
N  N5  1  0.66900000  0.02700000  0.77500000  1.0 -0.3183138468
N  N6  1  0.68800000  0.93100000  0.17900000  1.0 -0.2714024879
N  N7  1  0.83100000  0.97300000  0.27500000  1.0 -0.3183138468
N  N8  1  0.81200000  0.06900000  0.67900000  1.0 -0.2605909355
O  O1  1  0.55000000  0.51400000  0.28100000  1.0 -0.3285429724
O  O2  1  0.74400000  0.49700000  0.32000000  1.0 -0.3483676858
O  O3  1  0.31000000  0.90300000  0.25000000  1.0 -0.422976742
O  O4  1  0.57200000  0.86800000  0.28300000  1.0 -0.4123469241
O  O5  1  0.95000000  0.48600000  0.78100000  1.0 -0.3285429724
O  O6  1  0.75600000  0.50300000  0.82000000  1.0 -0.3483676858
O  O7  1  0.19000000  0.09700000  0.75000000  1.0 -0.422976742
O  O8  1  0.92800000  0.13200000  0.78300000  1.0 -0.4123469241
O  O9  1  0.45000000  0.01400000  0.21900000  1.0 -0.3285429724
O  O10  1  0.25600000  0.99700000  0.18000000  1.0 -0.3483676858
O  O11  1  0.69000000  0.40300000  0.25000000  1.0 -0.422976742
O  O12  1  0.42800000  0.36800000  0.21700000  1.0 -0.4123469241
O  O13  1  0.05000000  0.98600000  0.71900000  1.0 -0.3285429724
O  O14  1  0.24400000  0.00300000  0.68000000  1.0 -0.3483676858
O  O15  1  0.81000000  0.59700000  0.75000000  1.0 -0.422976742
O  O16  1  0.07200000  0.63200000  0.71700000  1.0 -0.4123469241
F  F1  1  0.11100000  0.22800000  0.54600000  1.0 -0.1402256921
F  F2  1  0.35300000  0.25800000  0.54400000  1.0 -0.0397038794
F  F3  1  0.41200000  0.25900000  0.60200000  1.0 0.0179635026
F  F4  1  0.95300000  0.26500000  0.67700000  1.0 -0.1490395185
F  F5  1  0.26300000  0.32000000  0.69700000  1.0 -0.19623589
F  F6  1  0.22200000  0.20100000  0.65100000  1.0 -0.1624529868
F  F7  1  0.38900000  0.77200000  0.04600000  1.0 -0.1402256921
F  F8  1  0.14700000  0.74200000  0.04400000  1.0 -0.0397038794
F  F9  1  0.08800000  0.74100000  0.10200000  1.0 0.0179635026
F  F10  1  0.54700000  0.73500000  0.17700000  1.0 -0.1490395185
F  F11  1  0.23700000  0.68000000  0.19700000  1.0 -0.19623589
F  F12  1  0.27800000  0.79900000  0.15100000  1.0 -0.1624529868
F  F13  1  0.88900000  0.72800000  0.95400000  1.0 -0.1402256921
F  F14  1  0.64700000  0.75800000  0.95600000  1.0 -0.0397038794
F  F15  1  0.58800000  0.75900000  0.89800000  1.0 0.0179635026
F  F16  1  0.04700000  0.76500000  0.82300000  1.0 -0.1490395185
F  F17  1  0.73700000  0.82000000  0.80300000  1.0 -0.19623589
F  F18  1  0.77800000  0.70100000  0.84900000  1.0 -0.1624529868
F  F19  1  0.61100000  0.27200000  0.45400000  1.0 -0.1402256921
F  F20  1  0.85300000  0.24200000  0.45600000  1.0 -0.0397038794
F  F21  1  0.91200000  0.24100000  0.39800000  1.0 0.0179635026
F  F22  1  0.45300000  0.23500000  0.32300000  1.0 -0.1490395185
F  F23  1  0.76300000  0.18000000  0.30300000  1.0 -0.19623589
F  F24  1  0.72200000  0.29900000  0.34900000  1.0 -0.1624529868
