# DDEC6 charges by PACMAN v1.1 (https://github.com/mtap-research/PACMAN-charge/)
data_c6ce00465b2_FSR_pacman
_symmetry_space_group_name_H-M   'P 1'
_cell_length_a   9.95230000
_cell_length_b   9.95230000
_cell_length_c   36.79800000
_cell_angle_alpha   90.00000000
_cell_angle_beta   90.00000000
_cell_angle_gamma   90.00000000
_symmetry_Int_Tables_number   1
_chemical_formula_structural   InH14(C17O4)2
_chemical_formula_sum   'In2 H28 C68 O16'
_cell_volume   3644.77843412
_cell_formula_units_Z   2
loop_
 _symmetry_equiv_pos_site_id
 _symmetry_equiv_pos_as_xyz
  1  'x, y, z'
loop_
 _atom_site_type_symbol
 _atom_site_label
 _atom_site_symmetry_multiplicity
 _atom_site_fract_x
 _atom_site_fract_y
 _atom_site_fract_z
 _atom_site_occupancy
 _atom_site_charge
In  In1  1  0.00000000  0.00000000  0.25000000  1.0 1.3320427405
In  In2  1  0.00000000  0.00000000  0.75000000  1.0 1.3320427405
H  H1  1  0.00000000  0.50000000  0.24880000  1.0 0.1643480229
H  H2  1  0.50000000  0.00000000  0.74880000  1.0 0.1643480229
H  H3  1  0.00000000  0.50000000  0.75120000  1.0 0.1643480229
H  H4  1  0.50000000  0.00000000  0.25120000  1.0 0.1643480229
H  H5  1  0.00000000  0.30170000  0.15460000  1.0 0.1477380356
H  H6  1  0.69830000  0.00000000  0.65460000  1.0 0.1477380356
H  H7  1  0.00000000  0.69830000  0.15460000  1.0 0.1477380356
H  H8  1  0.30170000  0.00000000  0.65460000  1.0 0.1477380356
H  H9  1  0.00000000  0.69830000  0.84540000  1.0 0.1477380356
H  H10  1  0.30170000  0.00000000  0.34540000  1.0 0.1477380356
H  H11  1  0.00000000  0.30170000  0.84540000  1.0 0.1477380356
H  H12  1  0.69830000  0.00000000  0.34540000  1.0 0.1477380356
H  H13  1  0.07680000  0.26190000  0.06410000  0.5 0.1144683676
H  H14  1  0.73810000  0.07680000  0.56410000  0.5 0.1144683676
H  H15  1  0.92320000  0.73810000  0.06410000  0.5 0.1144683676
H  H16  1  0.26190000  0.92320000  0.56410000  0.5 0.1144683676
H  H17  1  0.07680000  0.73810000  0.93590000  0.5 0.1144683676
H  H18  1  0.26190000  0.07680000  0.43590000  0.5 0.1144683676
H  H19  1  0.92320000  0.26190000  0.93590000  0.5 0.1144683676
H  H20  1  0.73810000  0.92320000  0.43590000  0.5 0.1144683676
H  H21  1  0.92320000  0.73810000  0.93590000  0.5 0.1144683676
H  H22  1  0.26190000  0.92320000  0.43590000  0.5 0.1144683676
H  H23  1  0.07680000  0.26190000  0.93590000  0.5 0.1144683676
H  H24  1  0.73810000  0.07680000  0.43590000  0.5 0.1144683676
H  H25  1  0.92320000  0.26190000  0.06410000  0.5 0.1144683676
H  H26  1  0.73810000  0.92320000  0.56410000  0.5 0.1144683676
H  H27  1  0.07680000  0.73810000  0.06410000  0.5 0.1144683676
H  H28  1  0.26190000  0.07680000  0.56410000  0.5 0.1144683676
H  H29  1  0.14520000  0.07730000  0.03110000  0.5 0.1176978786
H  H30  1  0.92270000  0.14520000  0.53110000  0.5 0.1176978786
H  H31  1  0.85480000  0.92270000  0.03110000  0.5 0.1176978786
H  H32  1  0.07730000  0.85480000  0.53110000  0.5 0.1176978786
H  H33  1  0.14520000  0.92270000  0.96890000  0.5 0.1176978786
H  H34  1  0.07730000  0.14520000  0.46890000  0.5 0.1176978786
H  H35  1  0.85480000  0.07730000  0.96890000  0.5 0.1176978786
H  H36  1  0.92270000  0.85480000  0.46890000  0.5 0.1176978786
H  H37  1  0.85480000  0.92270000  0.96890000  0.5 0.1176978786
H  H38  1  0.07730000  0.85480000  0.46890000  0.5 0.1176978786
H  H39  1  0.14520000  0.07730000  0.96890000  0.5 0.1176978786
H  H40  1  0.92270000  0.14520000  0.46890000  0.5 0.1176978786
H  H41  1  0.85480000  0.07730000  0.03110000  0.5 0.1176978786
H  H42  1  0.92270000  0.85480000  0.53110000  0.5 0.1176978786
H  H43  1  0.14520000  0.92270000  0.03110000  0.5 0.1176978786
H  H44  1  0.07730000  0.14520000  0.53110000  0.5 0.1176978786
C  C1  1  0.00000000  0.24570000  0.22408000  1.0 0.5360568257
C  C2  1  0.75430000  0.00000000  0.72408000  1.0 0.5360568257
C  C3  1  0.00000000  0.75430000  0.22408000  1.0 0.5360568257
C  C4  1  0.24570000  0.00000000  0.72408000  1.0 0.5360568257
C  C5  1  0.00000000  0.75430000  0.77592000  1.0 0.5360568257
C  C6  1  0.24570000  0.00000000  0.27592000  1.0 0.5360568257
C  C7  1  0.00000000  0.24570000  0.77592000  1.0 0.5360568257
C  C8  1  0.75430000  0.00000000  0.27592000  1.0 0.5360568257
C  C9  1  0.00000000  0.50000000  0.22350000  1.0 -0.0586346206
C  C10  1  0.50000000  0.00000000  0.72350000  1.0 -0.0586346206
C  C11  1  0.00000000  0.50000000  0.77650000  1.0 -0.0586346206
C  C12  1  0.50000000  0.00000000  0.27650000  1.0 -0.0586346206
C  C13  1  0.00000000  0.38170000  0.20457000  1.0 0.0243702055
C  C14  1  0.61830000  0.00000000  0.70457000  1.0 0.0253756697
C  C15  1  0.00000000  0.61830000  0.20457000  1.0 0.0243702055
C  C16  1  0.38170000  0.00000000  0.70457000  1.0 0.0253756697
C  C17  1  0.00000000  0.61830000  0.79543000  1.0 0.0253756697
C  C18  1  0.38170000  0.00000000  0.29543000  1.0 0.0253756697
C  C19  1  0.00000000  0.38170000  0.79543000  1.0 0.0253756697
C  C20  1  0.61830000  0.00000000  0.29543000  1.0 0.0253756697
C  C21  1  0.00000000  0.38260000  0.16726000  1.0 -0.1406817767
C  C22  1  0.61740000  0.00000000  0.66726000  1.0 -0.1406817767
C  C23  1  0.00000000  0.61740000  0.16726000  1.0 -0.1406817767
C  C24  1  0.38260000  0.00000000  0.66726000  1.0 -0.1406817767
C  C25  1  0.00000000  0.61740000  0.83274000  1.0 -0.1406817767
C  C26  1  0.38260000  0.00000000  0.33274000  1.0 -0.1406817767
C  C27  1  0.00000000  0.38260000  0.83274000  1.0 -0.1406817767
C  C28  1  0.61740000  0.00000000  0.33274000  1.0 -0.1406817767
C  C29  1  0.00000000  0.50000000  0.14880000  1.0 0.1044430303
C  C30  1  0.50000000  0.00000000  0.64880000  1.0 0.1044430303
C  C31  1  0.00000000  0.50000000  0.85120000  1.0 0.1044430303
C  C32  1  0.50000000  0.00000000  0.35120000  1.0 0.1044430303
C  C33  1  0.00000000  0.50000000  0.10770000  1.0 -0.0928902162
C  C34  1  0.50000000  0.00000000  0.60770000  1.0 -0.0928902162
C  C35  1  0.00000000  0.50000000  0.89230000  1.0 -0.0928902162
C  C36  1  0.50000000  0.00000000  0.39230000  1.0 -0.0928902162
C  C37  1  0.00000000  0.50000000  0.07660000  1.0 -0.2382183393
C  C38  1  0.50000000  0.00000000  0.57660000  1.0 -0.2382183393
C  C39  1  0.00000000  0.50000000  0.92340000  1.0 -0.2382183393
C  C40  1  0.50000000  0.00000000  0.42340000  1.0 -0.2382183393
C  C41  1  0.00000000  0.50000000  0.03780000  1.0 0.0842635053
C  C42  1  0.50000000  0.00000000  0.53780000  1.0 0.0842635053
C  C43  1  0.00000000  0.50000000  0.96220000  1.0 0.0842635053
C  C44  1  0.50000000  0.00000000  0.46220000  1.0 0.0842635053
C  C45  1  0.06670000  0.37850000  0.01860000  0.5 0.0023519398
C  C46  1  0.62150000  0.06670000  0.51860000  0.5 0.0023519398
C  C47  1  0.93330000  0.62150000  0.01860000  0.5 0.0023519398
C  C48  1  0.37850000  0.93330000  0.51860000  0.5 0.0023519398
C  C49  1  0.06670000  0.62150000  0.98140000  0.5 0.0023519398
C  C50  1  0.37850000  0.06670000  0.48140000  0.5 0.0023519398
C  C51  1  0.93330000  0.37850000  0.98140000  0.5 0.0023519398
C  C52  1  0.62150000  0.93330000  0.48140000  0.5 0.0023519398
C  C53  1  0.93330000  0.62150000  0.98140000  0.5 0.0023519398
C  C54  1  0.37850000  0.93330000  0.48140000  0.5 0.0023519398
C  C55  1  0.06670000  0.37850000  0.98140000  0.5 0.0023519398
C  C56  1  0.62150000  0.06670000  0.48140000  0.5 0.0023519398
C  C57  1  0.93330000  0.37850000  0.01860000  0.5 0.0023519398
C  C58  1  0.62150000  0.93330000  0.51860000  0.5 0.0023519398
C  C59  1  0.06670000  0.62150000  0.01860000  0.5 0.0023519398
C  C60  1  0.37850000  0.06670000  0.51860000  0.5 0.0023519398
C  C61  1  0.08630000  0.26410000  0.03890000  0.5 -0.0586346206
C  C62  1  0.73590000  0.08630000  0.53890000  0.5 -0.0586346206
C  C63  1  0.91370000  0.73590000  0.03890000  0.5 -0.0586346206
C  C64  1  0.26410000  0.91370000  0.53890000  0.5 -0.0586346206
C  C65  1  0.08630000  0.73590000  0.96110000  0.5 -0.0586346206
C  C66  1  0.26410000  0.08630000  0.46110000  0.5 -0.0586346206
C  C67  1  0.91370000  0.26410000  0.96110000  0.5 -0.0586346206
C  C68  1  0.73590000  0.91370000  0.46110000  0.5 -0.0586346206
C  C69  1  0.91370000  0.73590000  0.96110000  0.5 -0.0586346206
C  C70  1  0.26410000  0.91370000  0.46110000  0.5 -0.0586346206
C  C71  1  0.08630000  0.26410000  0.96110000  0.5 -0.0586346206
C  C72  1  0.73590000  0.08630000  0.46110000  0.5 -0.0586346206
C  C73  1  0.91370000  0.26410000  0.03890000  0.5 -0.0586346206
C  C74  1  0.73590000  0.91370000  0.53890000  0.5 -0.0586346206
C  C75  1  0.08630000  0.73590000  0.03890000  0.5 -0.0586346206
C  C76  1  0.26410000  0.08630000  0.53890000  0.5 -0.0586346206
C  C77  1  0.12000000  0.15600000  0.01910000  0.5 -0.1406817767
C  C78  1  0.84400000  0.12000000  0.51910000  0.5 -0.1406817767
C  C79  1  0.88000000  0.84400000  0.01910000  0.5 -0.1406817767
C  C80  1  0.15600000  0.88000000  0.51910000  0.5 -0.1406817767
C  C81  1  0.12000000  0.84400000  0.98090000  0.5 -0.1406817767
C  C82  1  0.15600000  0.12000000  0.48090000  0.5 -0.1406817767
C  C83  1  0.88000000  0.15600000  0.98090000  0.5 -0.1406817767
C  C84  1  0.84400000  0.88000000  0.48090000  0.5 -0.1406817767
C  C85  1  0.88000000  0.84400000  0.98090000  0.5 -0.1406817767
C  C86  1  0.15600000  0.88000000  0.48090000  0.5 -0.1406817767
C  C87  1  0.12000000  0.15600000  0.98090000  0.5 -0.1406817767
C  C88  1  0.84400000  0.12000000  0.48090000  0.5 -0.1406817767
C  C89  1  0.88000000  0.15600000  0.01910000  0.5 -0.1406817767
C  C90  1  0.84400000  0.88000000  0.51910000  0.5 -0.1406817767
C  C91  1  0.12000000  0.84400000  0.01910000  0.5 -0.1406817767
C  C92  1  0.15600000  0.12000000  0.51910000  0.5 -0.1406817767
O  O1  1  0.00000000  0.14310000  0.20526000  1.0 -0.4850350452
O  O2  1  0.85690000  0.00000000  0.70526000  1.0 -0.483587159
O  O3  1  0.00000000  0.85690000  0.20526000  1.0 -0.483587159
O  O4  1  0.14310000  0.00000000  0.70526000  1.0 -0.4850350452
O  O5  1  0.00000000  0.85690000  0.79474000  1.0 -0.483587159
O  O6  1  0.14310000  0.00000000  0.29474000  1.0 -0.4850350452
O  O7  1  0.00000000  0.14310000  0.79474000  1.0 -0.4850350452
O  O8  1  0.85690000  0.00000000  0.29474000  1.0 -0.483587159
O  O9  1  0.00000000  0.24440000  0.25683000  1.0 -0.46899624
O  O10  1  0.75560000  0.00000000  0.75683000  1.0 -0.46899624
O  O11  1  0.00000000  0.75560000  0.25683000  1.0 -0.46899624
O  O12  1  0.24440000  0.00000000  0.75683000  1.0 -0.46899624
O  O13  1  0.00000000  0.75560000  0.74317000  1.0 -0.46899624
O  O14  1  0.24440000  0.00000000  0.24317000  1.0 -0.46899624
O  O15  1  0.00000000  0.24440000  0.74317000  1.0 -0.46899624
O  O16  1  0.75560000  0.00000000  0.24317000  1.0 -0.46899624
