# DDEC6 charges by PACMAN v1.1 (https://github.com/mtap-research/PACMAN-charge/)
data_cg400183s_si_002_1_FSR_pacman
_symmetry_space_group_name_H-M   'P 1'
_cell_length_a   12.52230000
_cell_length_b   12.52230000
_cell_length_c   26.02240000
_cell_angle_alpha   90.00000000
_cell_angle_beta   90.00000000
_cell_angle_gamma   90.00000000
_symmetry_Int_Tables_number   1
_chemical_formula_structural   ZnH5C6(N2O)2
_chemical_formula_sum   'Zn16 H80 C96 N64 O32'
_cell_volume   4080.52042868
_cell_formula_units_Z   16
loop_
 _symmetry_equiv_pos_site_id
 _symmetry_equiv_pos_as_xyz
  1  'x, y, z'
loop_
 _atom_site_type_symbol
 _atom_site_label
 _atom_site_symmetry_multiplicity
 _atom_site_fract_x
 _atom_site_fract_y
 _atom_site_fract_z
 _atom_site_occupancy
 _atom_site_charge
Zn  Zn1  1  0.29186000  0.81237000  0.31254000  1.0 0.6144488734
Zn  Zn2  1  0.70814000  0.18763000  0.31254000  1.0 0.6144488734
Zn  Zn3  1  0.18763000  0.29186000  0.31254000  1.0 0.6144488734
Zn  Zn4  1  0.81237000  0.70814000  0.31254000  1.0 0.6144488734
Zn  Zn5  1  0.79186000  0.31237000  0.81254000  1.0 0.6144488734
Zn  Zn6  1  0.20814000  0.68763000  0.81254000  1.0 0.6144488734
Zn  Zn7  1  0.68763000  0.79186000  0.81254000  1.0 0.6144488734
Zn  Zn8  1  0.31237000  0.20814000  0.81254000  1.0 0.6144488734
Zn  Zn9  1  0.70814000  0.18763000  0.68746000  1.0 0.6144488734
Zn  Zn10  1  0.29186000  0.81237000  0.68746000  1.0 0.6144488734
Zn  Zn11  1  0.81237000  0.70814000  0.68746000  1.0 0.6144488734
Zn  Zn12  1  0.18763000  0.29186000  0.68746000  1.0 0.6144488734
Zn  Zn13  1  0.20814000  0.68763000  0.18746000  1.0 0.6144488734
Zn  Zn14  1  0.79186000  0.31237000  0.18746000  1.0 0.6158843641
Zn  Zn15  1  0.31237000  0.20814000  0.18746000  1.0 0.6158843641
Zn  Zn16  1  0.68763000  0.79186000  0.18746000  1.0 0.6158843641
H  H1  1  0.57740000  0.82830000  0.42270000  1.0 0.0940114562
H  H2  1  0.42260000  0.17170000  0.42270000  1.0 0.0940114562
H  H3  1  0.17170000  0.57740000  0.42270000  1.0 0.0940114562
H  H4  1  0.82830000  0.42260000  0.42270000  1.0 0.0940114562
H  H5  1  0.07740000  0.32830000  0.92270000  1.0 0.0940114562
H  H6  1  0.92260000  0.67170000  0.92270000  1.0 0.0940114562
H  H7  1  0.67170000  0.07740000  0.92270000  1.0 0.0940114562
H  H8  1  0.32830000  0.92260000  0.92270000  1.0 0.0940114562
H  H9  1  0.42260000  0.17170000  0.57730000  1.0 0.0940114562
H  H10  1  0.57740000  0.82830000  0.57730000  1.0 0.0940114562
H  H11  1  0.82830000  0.42260000  0.57730000  1.0 0.0940114562
H  H12  1  0.17170000  0.57740000  0.57730000  1.0 0.0940114562
H  H13  1  0.92260000  0.67170000  0.07730000  1.0 0.0940114562
H  H14  1  0.07740000  0.32830000  0.07730000  1.0 0.0940114562
H  H15  1  0.32830000  0.92260000  0.07730000  1.0 0.0940114562
H  H16  1  0.67170000  0.07740000  0.07730000  1.0 0.0940114562
H  H17  1  0.66860000  0.85520000  0.50000000  1.0 0.1023491989
H  H18  1  0.33140000  0.14480000  0.50000000  1.0 0.1023491989
H  H19  1  0.14480000  0.66860000  0.50000000  1.0 0.1023491989
H  H20  1  0.85520000  0.33140000  0.50000000  1.0 0.1023491989
H  H21  1  0.16860000  0.35520000  0.00000000  1.0 0.1023491989
H  H22  1  0.83140000  0.64480000  0.00000000  1.0 0.1023491989
H  H23  1  0.64480000  0.16860000  0.00000000  1.0 0.1023491989
H  H24  1  0.35520000  0.83140000  0.00000000  1.0 0.1023491989
H  H25  1  0.29810000  0.81950000  0.50000000  1.0 0.0836735335
H  H26  1  0.70190000  0.18050000  0.50000000  1.0 0.0836735335
H  H27  1  0.18050000  0.29810000  0.50000000  1.0 0.0836735335
H  H28  1  0.81950000  0.70190000  0.50000000  1.0 0.0836735335
H  H29  1  0.79810000  0.31950000  0.00000000  1.0 0.0836735335
H  H30  1  0.20190000  0.68050000  0.00000000  1.0 0.0836735335
H  H31  1  0.68050000  0.79810000  0.00000000  1.0 0.0836735335
H  H32  1  0.31950000  0.20190000  0.00000000  1.0 0.0836735335
H  H33  1  0.52860000  0.80700000  0.27810000  1.0 0.1023491989
H  H34  1  0.47140000  0.19300000  0.27810000  1.0 0.1023491989
H  H35  1  0.19300000  0.52860000  0.27810000  1.0 0.1023491989
H  H36  1  0.80700000  0.47140000  0.27810000  1.0 0.1023491989
H  H37  1  0.02860000  0.30700000  0.77810000  1.0 0.1023491989
H  H38  1  0.97140000  0.69300000  0.77810000  1.0 0.1023491989
H  H39  1  0.69300000  0.02860000  0.77810000  1.0 0.1023491989
H  H40  1  0.30700000  0.97140000  0.77810000  1.0 0.1023491989
H  H41  1  0.47140000  0.19300000  0.72190000  1.0 0.1023491989
H  H42  1  0.52860000  0.80700000  0.72190000  1.0 0.1023491989
H  H43  1  0.80700000  0.47140000  0.72190000  1.0 0.1023491989
H  H44  1  0.19300000  0.52860000  0.72190000  1.0 0.1023491989
H  H45  1  0.97140000  0.69300000  0.22190000  1.0 0.1023491989
H  H46  1  0.02860000  0.30700000  0.22190000  1.0 0.1023491989
H  H47  1  0.30700000  0.97140000  0.22190000  1.0 0.1023491989
H  H48  1  0.69300000  0.02860000  0.22190000  1.0 0.1023491989
H  H49  1  0.50750000  0.72940000  0.10600000  1.0 0.2906087772
H  H50  1  0.49250000  0.27060000  0.10600000  1.0 0.2906087772
H  H51  1  0.27060000  0.50750000  0.10600000  1.0 0.2906087772
H  H52  1  0.72940000  0.49250000  0.10600000  1.0 0.2906087772
H  H53  1  0.00750000  0.22940000  0.60600000  1.0 0.2906087772
H  H54  1  0.99250000  0.77060000  0.60600000  1.0 0.2906087772
H  H55  1  0.77060000  0.00750000  0.60600000  1.0 0.2906087772
H  H56  1  0.22940000  0.99250000  0.60600000  1.0 0.2906087772
H  H57  1  0.49250000  0.27060000  0.89400000  1.0 0.2906087772
H  H58  1  0.50750000  0.72940000  0.89400000  1.0 0.2906087772
H  H59  1  0.72940000  0.49250000  0.89400000  1.0 0.2906087772
H  H60  1  0.27060000  0.50750000  0.89400000  1.0 0.2906087772
H  H61  1  0.99250000  0.77060000  0.39400000  1.0 0.2906087772
H  H62  1  0.00750000  0.22940000  0.39400000  1.0 0.2906087772
H  H63  1  0.22940000  0.99250000  0.39400000  1.0 0.2906087772
H  H64  1  0.77060000  0.00750000  0.39400000  1.0 0.2906087772
H  H65  1  0.38700000  0.71250000  0.10570000  1.0 0.2906087772
H  H66  1  0.61300000  0.28750000  0.10570000  1.0 0.2906087772
H  H67  1  0.28750000  0.38700000  0.10570000  1.0 0.2906087772
H  H68  1  0.71250000  0.61300000  0.10570000  1.0 0.2906087772
H  H69  1  0.88700000  0.21250000  0.60570000  1.0 0.2906087772
H  H70  1  0.11300000  0.78750000  0.60570000  1.0 0.2906087772
H  H71  1  0.78750000  0.88700000  0.60570000  1.0 0.2906087772
H  H72  1  0.21250000  0.11300000  0.60570000  1.0 0.2906087772
H  H73  1  0.61300000  0.28750000  0.89430000  1.0 0.2906087772
H  H74  1  0.38700000  0.71250000  0.89430000  1.0 0.2906087772
H  H75  1  0.71250000  0.61300000  0.89430000  1.0 0.2906087772
H  H76  1  0.28750000  0.38700000  0.89430000  1.0 0.2906087772
H  H77  1  0.11300000  0.78750000  0.39430000  1.0 0.2906087772
H  H78  1  0.88700000  0.21250000  0.39430000  1.0 0.2906087772
H  H79  1  0.21250000  0.11300000  0.39430000  1.0 0.2906087772
H  H80  1  0.78750000  0.88700000  0.39430000  1.0 0.2906087772
C  C1  1  0.43010000  0.82400000  0.45355000  1.0 -0.0271092545
C  C2  1  0.56990000  0.17600000  0.45355000  1.0 -0.0271092545
C  C3  1  0.17600000  0.43010000  0.45355000  1.0 -0.0271092545
C  C4  1  0.82400000  0.56990000  0.45355000  1.0 -0.0271092545
C  C5  1  0.93010000  0.32400000  0.95355000  1.0 -0.0271092545
C  C6  1  0.06990000  0.67600000  0.95355000  1.0 -0.0271092545
C  C7  1  0.67600000  0.93010000  0.95355000  1.0 -0.0271092545
C  C8  1  0.32400000  0.06990000  0.95355000  1.0 -0.0271092545
C  C9  1  0.56990000  0.17600000  0.54645000  1.0 -0.0271092545
C  C10  1  0.43010000  0.82400000  0.54645000  1.0 -0.0271092545
C  C11  1  0.82400000  0.56990000  0.54645000  1.0 -0.0271092545
C  C12  1  0.17600000  0.43010000  0.54645000  1.0 -0.0271092545
C  C13  1  0.06990000  0.67600000  0.04645000  1.0 -0.0271092545
C  C14  1  0.93010000  0.32400000  0.04645000  1.0 -0.0271092545
C  C15  1  0.32400000  0.06990000  0.04645000  1.0 -0.0271092545
C  C16  1  0.67600000  0.93010000  0.04645000  1.0 -0.0271092545
C  C17  1  0.53900000  0.83080000  0.45420000  1.0 -0.1988408487
C  C18  1  0.46100000  0.16920000  0.45420000  1.0 -0.1988408487
C  C19  1  0.16920000  0.53900000  0.45420000  1.0 -0.1988408487
C  C20  1  0.83080000  0.46100000  0.45420000  1.0 -0.1988408487
C  C21  1  0.03900000  0.33080000  0.95420000  1.0 -0.1988408487
C  C22  1  0.96100000  0.66920000  0.95420000  1.0 -0.1988408487
C  C23  1  0.66920000  0.03900000  0.95420000  1.0 -0.1988408487
C  C24  1  0.33080000  0.96100000  0.95420000  1.0 -0.1988408487
C  C25  1  0.46100000  0.16920000  0.54580000  1.0 -0.1988408487
C  C26  1  0.53900000  0.83080000  0.54580000  1.0 -0.1988408487
C  C27  1  0.83080000  0.46100000  0.54580000  1.0 -0.1988408487
C  C28  1  0.16920000  0.53900000  0.54580000  1.0 -0.1988408487
C  C29  1  0.96100000  0.66920000  0.04580000  1.0 -0.1988408487
C  C30  1  0.03900000  0.33080000  0.04580000  1.0 -0.1988408487
C  C31  1  0.33080000  0.96100000  0.04580000  1.0 -0.1988408487
C  C32  1  0.66920000  0.03900000  0.04580000  1.0 -0.1988408487
C  C33  1  0.59400000  0.84110000  0.50000000  1.0 -0.1876186966
C  C34  1  0.40600000  0.15890000  0.50000000  1.0 -0.1876186966
C  C35  1  0.15890000  0.59400000  0.50000000  1.0 -0.1876186966
C  C36  1  0.84110000  0.40600000  0.50000000  1.0 -0.1876186966
C  C37  1  0.09400000  0.34110000  0.00000000  1.0 -0.1876186966
C  C38  1  0.90600000  0.65890000  0.00000000  1.0 -0.1876186966
C  C39  1  0.65890000  0.09400000  0.00000000  1.0 -0.1876186966
C  C40  1  0.34110000  0.90600000  0.00000000  1.0 -0.1876186966
C  C41  1  0.37400000  0.82210000  0.50000000  1.0 -0.209935687
C  C42  1  0.62600000  0.17790000  0.50000000  1.0 -0.209935687
C  C43  1  0.17790000  0.37400000  0.50000000  1.0 -0.209935687
C  C44  1  0.82210000  0.62600000  0.50000000  1.0 -0.209935687
C  C45  1  0.87400000  0.32210000  0.00000000  1.0 -0.209935687
C  C46  1  0.12600000  0.67790000  0.00000000  1.0 -0.209935687
C  C47  1  0.67790000  0.87400000  0.00000000  1.0 -0.209935687
C  C48  1  0.32210000  0.12600000  0.00000000  1.0 -0.209935687
C  C49  1  0.44220000  0.75080000  0.17290000  1.0 0.4697361258
C  C50  1  0.55780000  0.24920000  0.17290000  1.0 0.4697361258
C  C51  1  0.24920000  0.44220000  0.17290000  1.0 0.4697361258
C  C52  1  0.75080000  0.55780000  0.17290000  1.0 0.4697361258
C  C53  1  0.94220000  0.25080000  0.67290000  1.0 0.4697361258
C  C54  1  0.05780000  0.74920000  0.67290000  1.0 0.4697361258
C  C55  1  0.74920000  0.94220000  0.67290000  1.0 0.4697361258
C  C56  1  0.25080000  0.05780000  0.67290000  1.0 0.4697361258
C  C57  1  0.55780000  0.24920000  0.82710000  1.0 0.4697361258
C  C58  1  0.44220000  0.75080000  0.82710000  1.0 0.4697361258
C  C59  1  0.75080000  0.55780000  0.82710000  1.0 0.4697361258
C  C60  1  0.24920000  0.44220000  0.82710000  1.0 0.4697361258
C  C61  1  0.05780000  0.74920000  0.32710000  1.0 0.4697361258
C  C62  1  0.94220000  0.25080000  0.32710000  1.0 0.4697361258
C  C63  1  0.25080000  0.05780000  0.32710000  1.0 0.4697361258
C  C64  1  0.74920000  0.94220000  0.32710000  1.0 0.4697361258
C  C65  1  0.48670000  0.78890000  0.24895000  1.0 0.1167840534
C  C66  1  0.51330000  0.21110000  0.24895000  1.0 0.1167840534
C  C67  1  0.21110000  0.48670000  0.24895000  1.0 0.1167840534
C  C68  1  0.78890000  0.51330000  0.24895000  1.0 0.1167840534
C  C69  1  0.98670000  0.28890000  0.74895000  1.0 0.1167840534
C  C70  1  0.01330000  0.71110000  0.74895000  1.0 0.1167840534
C  C71  1  0.71110000  0.98670000  0.74895000  1.0 0.1167840534
C  C72  1  0.28890000  0.01330000  0.74895000  1.0 0.1167840534
C  C73  1  0.51330000  0.21110000  0.75105000  1.0 0.1167840534
C  C74  1  0.48670000  0.78890000  0.75105000  1.0 0.1167840534
C  C75  1  0.78890000  0.51330000  0.75105000  1.0 0.1167840534
C  C76  1  0.21110000  0.48670000  0.75105000  1.0 0.1167840534
C  C77  1  0.01330000  0.71110000  0.25105000  1.0 0.1167840534
C  C78  1  0.98670000  0.28890000  0.25105000  1.0 0.1167840534
C  C79  1  0.28890000  0.01330000  0.25105000  1.0 0.1167840534
C  C80  1  0.71110000  0.98670000  0.25105000  1.0 0.1167840534
C  C97  1  0.39480000  0.82680000  0.40200000  0.34 0.2499852409
C  C98  1  0.60520000  0.17320000  0.40200000  0.34 0.2499852409
C  C99  1  0.17320000  0.39480000  0.40200000  0.34 0.2499852409
C  C100  1  0.82680000  0.60520000  0.40200000  0.34 0.2499852409
C  C101  1  0.89480000  0.32680000  0.90200000  0.34 0.2499852409
C  C102  1  0.10520000  0.67320000  0.90200000  0.34 0.2499852409
C  C103  1  0.67320000  0.89480000  0.90200000  0.34 0.2499852409
C  C104  1  0.32680000  0.10520000  0.90200000  0.34 0.2499852409
C  C105  1  0.60520000  0.17320000  0.59800000  0.34 0.2499852409
C  C106  1  0.39480000  0.82680000  0.59800000  0.34 0.2499852409
C  C107  1  0.82680000  0.60520000  0.59800000  0.34 0.2499852409
C  C108  1  0.17320000  0.39480000  0.59800000  0.34 0.2499852409
C  C109  1  0.10520000  0.67320000  0.09800000  0.34 0.2499852409
C  C110  1  0.89480000  0.32680000  0.09800000  0.34 0.2499852409
C  C111  1  0.32680000  0.10520000  0.09800000  0.34 0.2499852409
C  C112  1  0.67320000  0.89480000  0.09800000  0.34 0.2499852409
C  C81  1  0.35100000  0.81470000  0.40640000  0.66 0.2557362304
C  C82  1  0.64900000  0.18530000  0.40640000  0.66 0.2557362304
C  C83  1  0.18530000  0.35100000  0.40640000  0.66 0.2557362304
C  C84  1  0.81470000  0.64900000  0.40640000  0.66 0.2557362304
C  C85  1  0.85100000  0.31470000  0.90640000  0.66 0.2557362304
C  C86  1  0.14900000  0.68530000  0.90640000  0.66 0.2557362304
C  C87  1  0.68530000  0.85100000  0.90640000  0.66 0.2557362304
C  C88  1  0.31470000  0.14900000  0.90640000  0.66 0.2557362304
C  C89  1  0.64900000  0.18530000  0.59360000  0.66 0.2557362304
C  C90  1  0.35100000  0.81470000  0.59360000  0.66 0.2557362304
C  C91  1  0.81470000  0.64900000  0.59360000  0.66 0.2557362304
C  C92  1  0.18530000  0.35100000  0.59360000  0.66 0.2557362304
C  C93  1  0.14900000  0.68530000  0.09360000  0.66 0.2557362304
C  C94  1  0.85100000  0.31470000  0.09360000  0.66 0.2557362304
C  C95  1  0.31470000  0.14900000  0.09360000  0.66 0.2557362304
C  C96  1  0.68530000  0.85100000  0.09360000  0.66 0.2557362304
N  N1  1  0.38390000  0.77450000  0.25093000  1.0 -0.2583269398
N  N2  1  0.61610000  0.22550000  0.25093000  1.0 -0.2583269398
N  N3  1  0.22550000  0.38390000  0.25093000  1.0 -0.2583269398
N  N4  1  0.77450000  0.61610000  0.25093000  1.0 -0.2583269398
N  N5  1  0.88390000  0.27450000  0.75093000  1.0 -0.2583269398
N  N6  1  0.11610000  0.72550000  0.75093000  1.0 -0.2583269398
N  N7  1  0.72550000  0.88390000  0.75093000  1.0 -0.2583269398
N  N8  1  0.27450000  0.11610000  0.75093000  1.0 -0.2583269398
N  N9  1  0.61610000  0.22550000  0.74907000  1.0 -0.2583269398
N  N10  1  0.38390000  0.77450000  0.74907000  1.0 -0.2583269398
N  N11  1  0.77450000  0.61610000  0.74907000  1.0 -0.2583269398
N  N12  1  0.22550000  0.38390000  0.74907000  1.0 -0.2583269398
N  N13  1  0.11610000  0.72550000  0.24907000  1.0 -0.2583269398
N  N14  1  0.88390000  0.27450000  0.24907000  1.0 -0.2583269398
N  N15  1  0.27450000  0.11610000  0.24907000  1.0 -0.2583269398
N  N16  1  0.72550000  0.88390000  0.24907000  1.0 -0.2583269398
N  N17  1  0.35170000  0.74940000  0.20050000  1.0 -0.3758948015
N  N18  1  0.64830000  0.25060000  0.20050000  1.0 -0.3758948015
N  N19  1  0.25060000  0.35170000  0.20050000  1.0 -0.3758948015
N  N20  1  0.74940000  0.64830000  0.20050000  1.0 -0.3758948015
N  N21  1  0.85170000  0.24940000  0.70050000  1.0 -0.3758948015
N  N22  1  0.14830000  0.75060000  0.70050000  1.0 -0.3758948015
N  N23  1  0.75060000  0.85170000  0.70050000  1.0 -0.3758948015
N  N24  1  0.24940000  0.14830000  0.70050000  1.0 -0.3747515376
N  N25  1  0.64830000  0.25060000  0.79950000  1.0 -0.3747515376
N  N26  1  0.35170000  0.74940000  0.79950000  1.0 -0.3747515376
N  N27  1  0.74940000  0.64830000  0.79950000  1.0 -0.3747515376
N  N28  1  0.25060000  0.35170000  0.79950000  1.0 -0.3747515376
N  N29  1  0.14830000  0.75060000  0.29950000  1.0 -0.3747515376
N  N30  1  0.85170000  0.24940000  0.29950000  1.0 -0.3747515376
N  N31  1  0.24940000  0.14830000  0.29950000  1.0 -0.3747515376
N  N32  1  0.75060000  0.85170000  0.29950000  1.0 -0.3747515376
N  N33  1  0.52800000  0.77570000  0.20134000  1.0 -0.4403302926
N  N34  1  0.47200000  0.22430000  0.20134000  1.0 -0.4403302926
N  N35  1  0.22430000  0.52800000  0.20134000  1.0 -0.4403302926
N  N36  1  0.77570000  0.47200000  0.20134000  1.0 -0.4403302926
N  N37  1  0.02800000  0.27570000  0.70134000  1.0 -0.4403302926
N  N38  1  0.97200000  0.72430000  0.70134000  1.0 -0.4403302926
N  N39  1  0.72430000  0.02800000  0.70134000  1.0 -0.4403302926
N  N40  1  0.27570000  0.97200000  0.70134000  1.0 -0.4403302926
N  N41  1  0.47200000  0.22430000  0.79866000  1.0 -0.4403302926
N  N42  1  0.52800000  0.77570000  0.79866000  1.0 -0.4403302926
N  N43  1  0.77570000  0.47200000  0.79866000  1.0 -0.4403302926
N  N44  1  0.22430000  0.52800000  0.79866000  1.0 -0.4403302926
N  N45  1  0.97200000  0.72430000  0.29866000  1.0 -0.4403302926
N  N46  1  0.02800000  0.27570000  0.29866000  1.0 -0.4403302926
N  N47  1  0.27570000  0.97200000  0.29866000  1.0 -0.4403302926
N  N48  1  0.72430000  0.02800000  0.29866000  1.0 -0.4403302926
N  N49  1  0.44600000  0.72830000  0.12236000  1.0 -0.6375984247
N  N50  1  0.55400000  0.27170000  0.12236000  1.0 -0.6375984247
N  N51  1  0.27170000  0.44600000  0.12236000  1.0 -0.6375984247
N  N52  1  0.72830000  0.55400000  0.12236000  1.0 -0.6375984247
N  N53  1  0.94600000  0.22830000  0.62236000  1.0 -0.6375984247
N  N54  1  0.05400000  0.77170000  0.62236000  1.0 -0.6375984247
N  N55  1  0.77170000  0.94600000  0.62236000  1.0 -0.6375984247
N  N56  1  0.22830000  0.05400000  0.62236000  1.0 -0.6375984247
N  N57  1  0.55400000  0.27170000  0.87764000  1.0 -0.6375984247
N  N58  1  0.44600000  0.72830000  0.87764000  1.0 -0.6375984247
N  N59  1  0.72830000  0.55400000  0.87764000  1.0 -0.6375984247
N  N60  1  0.27170000  0.44600000  0.87764000  1.0 -0.6375984247
N  N61  1  0.05400000  0.77170000  0.37764000  1.0 -0.6375984247
N  N62  1  0.94600000  0.22830000  0.37764000  1.0 -0.6375984247
N  N63  1  0.22830000  0.05400000  0.37764000  1.0 -0.6375984247
N  N64  1  0.77170000  0.94600000  0.37764000  1.0 -0.6375984247
O  O33  1  0.29600000  0.81630000  0.39940000  0.34 -0.0076340347
O  O34  1  0.70400000  0.18370000  0.39940000  0.34 -0.0076340347
O  O35  1  0.18370000  0.29600000  0.39940000  0.34 -0.0076340347
O  O36  1  0.81630000  0.70400000  0.39940000  0.34 -0.0076340347
O  O37  1  0.79600000  0.31630000  0.89940000  0.34 -0.0076340347
O  O38  1  0.20400000  0.68370000  0.89940000  0.34 -0.0076340347
O  O39  1  0.68370000  0.79600000  0.89940000  0.34 -0.0076340347
O  O40  1  0.31630000  0.20400000  0.89940000  0.34 -0.0076340347
O  O41  1  0.70400000  0.18370000  0.60060000  0.34 -0.003821577
O  O42  1  0.29600000  0.81630000  0.60060000  0.34 -0.003821577
O  O43  1  0.81630000  0.70400000  0.60060000  0.34 -0.003821577
O  O44  1  0.18370000  0.29600000  0.60060000  0.34 -0.003821577
O  O45  1  0.20400000  0.68370000  0.10060000  0.34 -0.003821577
O  O46  1  0.79600000  0.31630000  0.10060000  0.34 -0.003821577
O  O47  1  0.31630000  0.20400000  0.10060000  0.34 -0.003821577
O  O48  1  0.68370000  0.79600000  0.10060000  0.34 -0.003821577
O  O49  1  0.45280000  0.82200000  0.36280000  0.34 -0.209935687
O  O50  1  0.54720000  0.17800000  0.36280000  0.34 -0.209935687
O  O51  1  0.17800000  0.45280000  0.36280000  0.34 -0.209935687
O  O52  1  0.82200000  0.54720000  0.36280000  0.34 -0.209935687
O  O53  1  0.95280000  0.32200000  0.86280000  0.34 -0.209935687
O  O54  1  0.04720000  0.67800000  0.86280000  0.34 -0.209935687
O  O55  1  0.67800000  0.95280000  0.86280000  0.34 -0.209935687
O  O56  1  0.32200000  0.04720000  0.86280000  0.34 -0.209935687
O  O57  1  0.54720000  0.17800000  0.63720000  0.34 -0.209935687
O  O58  1  0.45280000  0.82200000  0.63720000  0.34 -0.209935687
O  O59  1  0.82200000  0.54720000  0.63720000  0.34 -0.209935687
O  O60  1  0.17800000  0.45280000  0.63720000  0.34 -0.209935687
O  O61  1  0.04720000  0.67800000  0.13720000  0.34 -0.209935687
O  O62  1  0.95280000  0.32200000  0.13720000  0.34 -0.209935687
O  O63  1  0.32200000  0.04720000  0.13720000  0.34 -0.209935687
O  O64  1  0.67800000  0.95280000  0.13720000  0.34 -0.209935687
O  O1  1  0.25300000  0.83840000  0.40920000  0.66 -0.163794631
O  O2  1  0.74700000  0.16160000  0.40920000  0.66 -0.163794631
O  O3  1  0.16160000  0.25300000  0.40920000  0.66 -0.163794631
O  O4  1  0.83840000  0.74700000  0.40920000  0.66 -0.163794631
O  O5  1  0.75300000  0.33840000  0.90920000  0.66 -0.163794631
O  O6  1  0.24700000  0.66160000  0.90920000  0.66 -0.163794631
O  O7  1  0.66160000  0.75300000  0.90920000  0.66 -0.163794631
O  O8  1  0.33840000  0.24700000  0.90920000  0.66 -0.163794631
O  O9  1  0.74700000  0.16160000  0.59080000  0.66 -0.1657369281
O  O10  1  0.25300000  0.83840000  0.59080000  0.66 -0.163794631
O  O11  1  0.83840000  0.74700000  0.59080000  0.66 -0.1657369281
O  O12  1  0.16160000  0.25300000  0.59080000  0.66 -0.163794631
O  O13  1  0.24700000  0.66160000  0.09080000  0.66 -0.163794631
O  O14  1  0.75300000  0.33840000  0.09080000  0.66 -0.163794631
O  O15  1  0.33840000  0.24700000  0.09080000  0.66 -0.163794631
O  O16  1  0.66160000  0.75300000  0.09080000  0.66 -0.163794631
O  O17  1  0.39800000  0.79280000  0.36430000  0.66 -0.0616136752
O  O18  1  0.60200000  0.20720000  0.36430000  0.66 -0.0616136752
O  O19  1  0.20720000  0.39800000  0.36430000  0.66 -0.0616136752
O  O20  1  0.79280000  0.60200000  0.36430000  0.66 -0.0616136752
O  O21  1  0.89800000  0.29280000  0.86430000  0.66 -0.0616136752
O  O22  1  0.10200000  0.70720000  0.86430000  0.66 -0.0616136752
O  O23  1  0.70720000  0.89800000  0.86430000  0.66 -0.0616136752
O  O24  1  0.29280000  0.10200000  0.86430000  0.66 -0.0616136752
O  O25  1  0.60200000  0.20720000  0.63570000  0.66 -0.0616136752
O  O26  1  0.39800000  0.79280000  0.63570000  0.66 -0.0616136752
O  O27  1  0.79280000  0.60200000  0.63570000  0.66 -0.0616136752
O  O28  1  0.20720000  0.39800000  0.63570000  0.66 -0.0616136752
O  O29  1  0.10200000  0.70720000  0.13570000  0.66 -0.0616136752
O  O30  1  0.89800000  0.29280000  0.13570000  0.66 -0.0616136752
O  O31  1  0.29280000  0.10200000  0.13570000  0.66 -0.0616136752
O  O32  1  0.70720000  0.89800000  0.13570000  0.66 -0.0616136752
