# DDEC6 charges by PACMAN v1.1 (https://github.com/mtap-research/PACMAN-charge/)
data_ja0c07251_si_003_ASR_pacman
_symmetry_space_group_name_H-M   'P 1'
_cell_length_a   15.33160000
_cell_length_b   15.33160000
_cell_length_c   23.45000000
_cell_angle_alpha   90.00000000
_cell_angle_beta   90.00000000
_cell_angle_gamma   90.00000000
_symmetry_Int_Tables_number   1
_chemical_formula_structural   ZnH16C30NO4
_chemical_formula_sum   'Zn4 H64 C120 N4 O16'
_cell_volume   5512.10912823
_cell_formula_units_Z   4
loop_
 _symmetry_equiv_pos_site_id
 _symmetry_equiv_pos_as_xyz
  1  'x, y, z'
loop_
 _atom_site_type_symbol
 _atom_site_label
 _atom_site_symmetry_multiplicity
 _atom_site_fract_x
 _atom_site_fract_y
 _atom_site_fract_z
 _atom_site_occupancy
 _atom_site_charge
Zn  Zn1  1  0.50000000  0.50000000  0.43695000  1.0 0.7866024961
Zn  Zn2  1  0.00000000  0.00000000  0.56305000  1.0 0.7866024961
Zn  Zn3  1  0.50000000  0.50000000  0.56305000  1.0 0.7866024961
Zn  Zn4  1  0.00000000  0.00000000  0.43695000  1.0 0.7866024961
H  H1  1  0.72930000  0.55440000  0.59330000  1.0 0.1180730399
H  H2  1  0.83710000  0.55610000  0.66400000  1.0 0.1111819411
H  H3  1  0.27070000  0.44560000  0.59330000  1.0 0.1180730399
H  H4  1  0.16290000  0.44390000  0.66400000  1.0 0.1111819411
H  H5  1  0.44560000  0.72930000  0.59330000  1.0 0.1180730399
H  H6  1  0.44390000  0.83710000  0.66400000  1.0 0.1111819411
H  H7  1  0.55440000  0.27070000  0.59330000  1.0 0.1180730399
H  H8  1  0.55610000  0.16290000  0.66400000  1.0 0.1111819411
H  H9  1  0.77070000  0.05440000  0.40670000  1.0 0.1180730399
H  H10  1  0.66290000  0.05610000  0.33600000  1.0 0.1111819411
H  H11  1  0.22930000  0.94560000  0.40670000  1.0 0.1180730399
H  H12  1  0.33710000  0.94390000  0.33600000  1.0 0.1111819411
H  H13  1  0.05440000  0.22930000  0.40670000  1.0 0.1180730399
H  H14  1  0.05610000  0.33710000  0.33600000  1.0 0.1111819411
H  H15  1  0.94560000  0.77070000  0.40670000  1.0 0.1180730399
H  H16  1  0.94390000  0.66290000  0.33600000  1.0 0.1111819411
H  H17  1  0.27070000  0.44560000  0.40670000  1.0 0.1180730399
H  H18  1  0.16290000  0.44390000  0.33600000  1.0 0.1111819411
H  H19  1  0.72930000  0.55440000  0.40670000  1.0 0.1180730399
H  H20  1  0.83710000  0.55610000  0.33600000  1.0 0.1111819411
H  H21  1  0.55440000  0.27070000  0.40670000  1.0 0.1180730399
H  H22  1  0.55610000  0.16290000  0.33600000  1.0 0.1111819411
H  H23  1  0.44560000  0.72930000  0.40670000  1.0 0.1180730399
H  H24  1  0.44390000  0.83710000  0.33600000  1.0 0.1111819411
H  H25  1  0.22930000  0.94560000  0.59330000  1.0 0.1180730399
H  H26  1  0.33710000  0.94390000  0.66400000  1.0 0.1111819411
H  H27  1  0.77070000  0.05440000  0.59330000  1.0 0.1180730399
H  H28  1  0.66290000  0.05610000  0.66400000  1.0 0.1111819411
H  H29  1  0.94560000  0.77070000  0.59330000  1.0 0.1180730399
H  H30  1  0.94390000  0.66290000  0.66400000  1.0 0.1111819411
H  H31  1  0.05440000  0.22930000  0.59330000  1.0 0.1180730399
H  H32  1  0.05610000  0.33710000  0.66400000  1.0 0.1111819411
H  H33  1  0.54300000  0.74120000  0.50000000  1.0 0.1180730399
H  H34  1  0.50350000  0.88890000  0.50000000  1.0 0.1111819411
H  H35  1  0.45700000  0.25880000  0.50000000  1.0 0.1180730399
H  H36  1  0.49650000  0.11110000  0.50000000  1.0 0.1111819411
H  H37  1  0.25880000  0.54300000  0.50000000  1.0 0.1180730399
H  H38  1  0.11110000  0.50350000  0.50000000  1.0 0.1111819411
H  H39  1  0.74120000  0.45700000  0.50000000  1.0 0.1180730399
H  H40  1  0.88890000  0.49650000  0.50000000  1.0 0.1111819411
H  H41  1  0.95700000  0.24120000  0.50000000  1.0 0.1180730399
H  H42  1  0.99650000  0.38890000  0.50000000  1.0 0.1111819411
H  H43  1  0.04300000  0.75880000  0.50000000  1.0 0.1180730399
H  H44  1  0.00350000  0.61110000  0.50000000  1.0 0.1111819411
H  H45  1  0.24120000  0.04300000  0.50000000  1.0 0.1180730399
H  H46  1  0.38890000  0.00350000  0.50000000  1.0 0.1111819411
H  H47  1  0.75880000  0.95700000  0.50000000  1.0 0.1180730399
H  H48  1  0.61110000  0.99650000  0.50000000  1.0 0.1111819411
H  H49  1  0.60550000  0.42790000  0.34100000  0.5 0.1180730399
H  H50  1  0.61110000  0.42570000  0.24590000  0.5 0.1180730399
H  H51  1  0.39450000  0.57210000  0.34100000  0.5 0.1180730399
H  H52  1  0.38890000  0.57430000  0.24590000  0.5 0.1180730399
H  H53  1  0.57210000  0.60550000  0.34100000  0.5 0.1180730399
H  H54  1  0.57430000  0.61110000  0.24590000  0.5 0.1180730399
H  H55  1  0.42790000  0.39450000  0.34100000  0.5 0.1180730399
H  H56  1  0.42570000  0.38890000  0.24590000  0.5 0.1180730399
H  H57  1  0.89450000  0.92790000  0.65900000  0.5 0.1180730399
H  H58  1  0.88890000  0.92570000  0.75410000  0.5 0.1180730399
H  H59  1  0.10550000  0.07210000  0.65900000  0.5 0.1180730399
H  H60  1  0.11110000  0.07430000  0.75410000  0.5 0.1180730399
H  H61  1  0.92790000  0.10550000  0.65900000  0.5 0.1180730399
H  H62  1  0.92570000  0.11110000  0.75410000  0.5 0.1180730399
H  H63  1  0.07210000  0.89450000  0.65900000  0.5 0.1180730399
H  H64  1  0.07430000  0.88890000  0.75410000  0.5 0.1180730399
H  H65  1  0.39450000  0.57210000  0.65900000  0.5 0.1180730399
H  H66  1  0.38890000  0.57430000  0.75410000  0.5 0.1180730399
H  H67  1  0.60550000  0.42790000  0.65900000  0.5 0.1180730399
H  H68  1  0.61110000  0.42570000  0.75410000  0.5 0.1180730399
H  H69  1  0.42790000  0.39450000  0.65900000  0.5 0.1180730399
H  H70  1  0.42570000  0.38890000  0.75410000  0.5 0.1180730399
H  H71  1  0.57210000  0.60550000  0.65900000  0.5 0.1180730399
H  H72  1  0.57430000  0.61110000  0.75410000  0.5 0.1180730399
H  H73  1  0.10550000  0.07210000  0.34100000  0.5 0.1180730399
H  H74  1  0.11110000  0.07430000  0.24590000  0.5 0.1180730399
H  H75  1  0.89450000  0.92790000  0.34100000  0.5 0.1180730399
H  H76  1  0.88890000  0.92570000  0.24590000  0.5 0.1180730399
H  H77  1  0.07210000  0.89450000  0.34100000  0.5 0.1180730399
H  H78  1  0.07430000  0.88890000  0.24590000  0.5 0.1180730399
H  H79  1  0.92790000  0.10550000  0.34100000  0.5 0.1180730399
H  H80  1  0.92570000  0.11110000  0.24590000  0.5 0.1180730399
C  C1  1  0.77221000  0.66295000  0.55148000  1.0 0.0311918733
C  C2  1  0.77265000  0.59872000  0.59327000  1.0 -0.1432030463
C  C3  1  0.83698000  0.59966000  0.63513000  1.0 -0.1107897189
C  C4  1  0.22779000  0.33705000  0.55148000  1.0 0.0311918733
C  C5  1  0.22735000  0.40128000  0.59327000  1.0 -0.1432030463
C  C6  1  0.16302000  0.40034000  0.63513000  1.0 -0.1107897189
C  C7  1  0.33705000  0.77221000  0.55148000  1.0 0.0311918733
C  C8  1  0.40128000  0.77265000  0.59327000  1.0 -0.1432030463
C  C9  1  0.40034000  0.83698000  0.63513000  1.0 -0.1107897189
C  C10  1  0.66295000  0.22779000  0.55148000  1.0 0.0311918733
C  C11  1  0.59872000  0.22735000  0.59327000  1.0 -0.1432030463
C  C12  1  0.59966000  0.16302000  0.63513000  1.0 -0.1107897189
C  C13  1  0.72779000  0.16295000  0.44852000  1.0 0.0311918733
C  C14  1  0.72735000  0.09872000  0.40673000  1.0 -0.1432030463
C  C15  1  0.66302000  0.09966000  0.36487000  1.0 -0.1107897189
C  C16  1  0.27221000  0.83705000  0.44852000  1.0 0.0311918733
C  C17  1  0.27265000  0.90128000  0.40673000  1.0 -0.1432030463
C  C18  1  0.33698000  0.90034000  0.36487000  1.0 -0.1107897189
C  C19  1  0.16295000  0.27221000  0.44852000  1.0 0.0311918733
C  C20  1  0.09872000  0.27265000  0.40673000  1.0 -0.1432030463
C  C21  1  0.09966000  0.33698000  0.36487000  1.0 -0.1107897189
C  C22  1  0.83705000  0.72779000  0.44852000  1.0 0.0311918733
C  C23  1  0.90128000  0.72735000  0.40673000  1.0 -0.1432030463
C  C24  1  0.90034000  0.66302000  0.36487000  1.0 -0.1107897189
C  C25  1  0.22779000  0.33705000  0.44852000  1.0 0.0311918733
C  C26  1  0.22735000  0.40128000  0.40673000  1.0 -0.1432030463
C  C27  1  0.16302000  0.40034000  0.36487000  1.0 -0.1107897189
C  C28  1  0.77221000  0.66295000  0.44852000  1.0 0.0311918733
C  C29  1  0.77265000  0.59872000  0.40673000  1.0 -0.1432030463
C  C30  1  0.83698000  0.59966000  0.36487000  1.0 -0.1107897189
C  C31  1  0.66295000  0.22779000  0.44852000  1.0 0.0311918733
C  C32  1  0.59872000  0.22735000  0.40673000  1.0 -0.1432030463
C  C33  1  0.59966000  0.16302000  0.36487000  1.0 -0.1107897189
C  C34  1  0.33705000  0.77221000  0.44852000  1.0 0.0311918733
C  C35  1  0.40128000  0.77265000  0.40673000  1.0 -0.1432030463
C  C36  1  0.40034000  0.83698000  0.36487000  1.0 -0.1107897189
C  C37  1  0.27221000  0.83705000  0.55148000  1.0 0.0311918733
C  C38  1  0.27265000  0.90128000  0.59327000  1.0 -0.1432030463
C  C39  1  0.33698000  0.90034000  0.63513000  1.0 -0.1107897189
C  C40  1  0.72779000  0.16295000  0.55148000  1.0 0.0311918733
C  C41  1  0.72735000  0.09872000  0.59327000  1.0 -0.1432030463
C  C42  1  0.66302000  0.09966000  0.63513000  1.0 -0.1107897189
C  C43  1  0.83705000  0.72779000  0.55148000  1.0 0.0311918733
C  C44  1  0.90128000  0.72735000  0.59327000  1.0 -0.1432030463
C  C45  1  0.90034000  0.66302000  0.63513000  1.0 -0.1107897189
C  C46  1  0.16295000  0.27221000  0.55148000  1.0 0.0311918733
C  C47  1  0.09872000  0.27265000  0.59327000  1.0 -0.1432030463
C  C48  1  0.09966000  0.33698000  0.63513000  1.0 -0.1107897189
C  C49  1  0.50000000  0.50000000  0.23220000  1.0 0.1410711323
C  C50  1  0.50000000  0.50000000  0.17340000  1.0 -0.1709577749
C  C51  1  0.50000000  0.50000000  0.11850000  1.0 0.0512708658
C  C52  1  0.50000000  0.50000000  0.04950000  1.0 -0.1232176359
C  C53  1  0.00000000  0.00000000  0.76780000  1.0 0.1410711323
C  C54  1  0.00000000  0.00000000  0.82660000  1.0 -0.1709577749
C  C55  1  0.00000000  0.00000000  0.88150000  1.0 0.0512708658
C  C56  1  0.00000000  0.00000000  0.95050000  1.0 -0.1432030463
C  C57  1  0.50000000  0.50000000  0.76780000  1.0 0.1410711323
C  C58  1  0.50000000  0.50000000  0.82660000  1.0 -0.1709577749
C  C59  1  0.50000000  0.50000000  0.88150000  1.0 0.0512708658
C  C60  1  0.50000000  0.50000000  0.95050000  1.0 -0.1432030463
C  C61  1  0.00000000  0.00000000  0.23220000  1.0 0.1410711323
C  C62  1  0.00000000  0.00000000  0.17340000  1.0 -0.1709577749
C  C63  1  0.00000000  0.00000000  0.11850000  1.0 0.0512708658
C  C64  1  0.00000000  0.00000000  0.04950000  1.0 -0.1232176359
C  C65  1  0.63178000  0.60554000  0.50000000  1.0 0.5739343007
C  C66  1  0.71012000  0.66830000  0.50000000  1.0 -0.0615826781
C  C67  1  0.67389000  0.76215000  0.50000000  1.0 0.0311918733
C  C68  1  0.58672000  0.78513000  0.50000000  1.0 -0.1432030463
C  C69  1  0.56331000  0.87280000  0.50000000  1.0 -0.0881075571
C  C70  1  0.36822000  0.39446000  0.50000000  1.0 0.5739343007
C  C71  1  0.28988000  0.33170000  0.50000000  1.0 -0.0615826781
C  C72  1  0.32611000  0.23785000  0.50000000  1.0 0.0311918733
C  C73  1  0.41328000  0.21487000  0.50000000  1.0 -0.1432030463
C  C74  1  0.43669000  0.12720000  0.50000000  1.0 -0.0881075571
C  C75  1  0.39446000  0.63178000  0.50000000  1.0 0.5739343007
C  C76  1  0.33170000  0.71012000  0.50000000  1.0 -0.0615826781
C  C77  1  0.23785000  0.67389000  0.50000000  1.0 0.0311918733
C  C78  1  0.21487000  0.58672000  0.50000000  1.0 -0.1432030463
C  C79  1  0.12720000  0.56331000  0.50000000  1.0 -0.0881075571
C  C80  1  0.60554000  0.36822000  0.50000000  1.0 0.5739343007
C  C81  1  0.66830000  0.28988000  0.50000000  1.0 -0.0615826781
C  C82  1  0.76215000  0.32611000  0.50000000  1.0 0.0311918733
C  C83  1  0.78513000  0.41328000  0.50000000  1.0 -0.1432030463
C  C84  1  0.87280000  0.43669000  0.50000000  1.0 -0.0881075571
C  C85  1  0.86822000  0.10554000  0.50000000  1.0 0.5739343007
C  C86  1  0.78988000  0.16830000  0.50000000  1.0 -0.0615826781
C  C87  1  0.82611000  0.26215000  0.50000000  1.0 0.0311918733
C  C88  1  0.91328000  0.28513000  0.50000000  1.0 -0.1432030463
C  C89  1  0.93669000  0.37280000  0.50000000  1.0 -0.0881075571
C  C90  1  0.13178000  0.89446000  0.50000000  1.0 0.5739343007
C  C91  1  0.21012000  0.83170000  0.50000000  1.0 -0.0615826781
C  C92  1  0.17389000  0.73785000  0.50000000  1.0 0.0311918733
C  C93  1  0.08672000  0.71487000  0.50000000  1.0 -0.1432030463
C  C94  1  0.06331000  0.62720000  0.50000000  1.0 -0.0881075571
C  C95  1  0.10554000  0.13178000  0.50000000  1.0 0.5739343007
C  C96  1  0.16830000  0.21012000  0.50000000  1.0 -0.0615826781
C  C97  1  0.26215000  0.17389000  0.50000000  1.0 0.0311918733
C  C98  1  0.28513000  0.08672000  0.50000000  1.0 -0.1432030463
C  C99  1  0.37280000  0.06331000  0.50000000  1.0 -0.0881075571
C  C100  1  0.89446000  0.86822000  0.50000000  1.0 0.5739343007
C  C101  1  0.83170000  0.78988000  0.50000000  1.0 -0.0615826781
C  C102  1  0.73785000  0.82611000  0.50000000  1.0 0.0311918733
C  C103  1  0.71487000  0.91328000  0.50000000  1.0 -0.1432030463
C  C104  1  0.62720000  0.93669000  0.50000000  1.0 -0.0881075571
C  C105  1  0.56150000  0.45820000  0.32050000  0.5 -0.0188266847
C  C106  1  0.56530000  0.45610000  0.26460000  0.5 -0.1107897189
C  C107  1  0.43850000  0.54180000  0.32050000  0.5 -0.0188266847
C  C108  1  0.43470000  0.54390000  0.26460000  0.5 -0.1107897189
C  C109  1  0.54180000  0.56150000  0.32050000  0.5 -0.0188266847
C  C110  1  0.54390000  0.56530000  0.26460000  0.5 -0.1107897189
C  C111  1  0.45820000  0.43850000  0.32050000  0.5 -0.0188266847
C  C112  1  0.45610000  0.43470000  0.26460000  0.5 -0.1107897189
C  C113  1  0.93850000  0.95820000  0.67950000  0.5 -0.0188266847
C  C114  1  0.93470000  0.95610000  0.73540000  0.5 -0.1107897189
C  C115  1  0.06150000  0.04180000  0.67950000  0.5 -0.0188266847
C  C116  1  0.06530000  0.04390000  0.73540000  0.5 -0.1107897189
C  C117  1  0.95820000  0.06150000  0.67950000  0.5 -0.0188266847
C  C118  1  0.95610000  0.06530000  0.73540000  0.5 -0.1107897189
C  C119  1  0.04180000  0.93850000  0.67950000  0.5 -0.0188266847
C  C120  1  0.04390000  0.93470000  0.73540000  0.5 -0.1107897189
C  C121  1  0.43850000  0.54180000  0.67950000  0.5 -0.0188266847
C  C122  1  0.43470000  0.54390000  0.73540000  0.5 -0.1107897189
C  C123  1  0.56150000  0.45820000  0.67950000  0.5 -0.0188266847
C  C124  1  0.56530000  0.45610000  0.73540000  0.5 -0.1107897189
C  C125  1  0.45820000  0.43850000  0.67950000  0.5 -0.0188266847
C  C126  1  0.45610000  0.43470000  0.73540000  0.5 -0.1107897189
C  C127  1  0.54180000  0.56150000  0.67950000  0.5 -0.0188266847
C  C128  1  0.54390000  0.56530000  0.73540000  0.5 -0.1107897189
C  C129  1  0.06150000  0.04180000  0.32050000  0.5 -0.0188266847
C  C130  1  0.06530000  0.04390000  0.26460000  0.5 -0.1107897189
C  C131  1  0.93850000  0.95820000  0.32050000  0.5 -0.0188266847
C  C132  1  0.93470000  0.95610000  0.26460000  0.5 -0.1107897189
C  C133  1  0.04180000  0.93850000  0.32050000  0.5 -0.0188266847
C  C134  1  0.04390000  0.93470000  0.26460000  0.5 -0.1107897189
C  C135  1  0.95820000  0.06150000  0.32050000  0.5 -0.0188266847
C  C136  1  0.95610000  0.06530000  0.26460000  0.5 -0.1107897189
N  N1  1  0.50000000  0.50000000  0.35061000  1.0 -0.0833106721
N  N2  1  0.00000000  0.00000000  0.64939000  1.0 -0.0833106721
N  N3  1  0.50000000  0.50000000  0.64939000  1.0 -0.0833106721
N  N4  1  0.00000000  0.00000000  0.35061000  1.0 -0.0833106721
O  O1  1  0.60036000  0.58445000  0.45278000  1.0 -0.5315941284
O  O2  1  0.39964000  0.41555000  0.45278000  1.0 -0.5315941284
O  O3  1  0.41555000  0.60036000  0.45278000  1.0 -0.5315941284
O  O4  1  0.58445000  0.39964000  0.45278000  1.0 -0.5315941284
O  O5  1  0.89964000  0.08445000  0.54722000  1.0 -0.5315941284
O  O6  1  0.10036000  0.91555000  0.54722000  1.0 -0.5315941284
O  O7  1  0.08445000  0.10036000  0.54722000  1.0 -0.5315941284
O  O8  1  0.91555000  0.89964000  0.54722000  1.0 -0.5315941284
O  O9  1  0.39964000  0.41555000  0.54722000  1.0 -0.5315941284
O  O10  1  0.60036000  0.58445000  0.54722000  1.0 -0.5315941284
O  O11  1  0.58445000  0.39964000  0.54722000  1.0 -0.5315941284
O  O12  1  0.41555000  0.60036000  0.54722000  1.0 -0.5315941284
O  O13  1  0.10036000  0.91555000  0.45278000  1.0 -0.5315941284
O  O14  1  0.89964000  0.08445000  0.45278000  1.0 -0.5315941284
O  O15  1  0.91555000  0.89964000  0.45278000  1.0 -0.5315941284
O  O16  1  0.08445000  0.10036000  0.45278000  1.0 -0.5315941284
