# DDEC6 charges by PACMAN v1.1 (https://github.com/mtap-research/PACMAN-charge/)
data_ja0c09379_si_002_FSR_pacman
_symmetry_space_group_name_H-M   'P 1'
_cell_length_a   10.54570000
_cell_length_b   10.54570000
_cell_length_c   10.54570000
_cell_angle_alpha   90.00000000
_cell_angle_beta   90.00000000
_cell_angle_gamma   90.00000000
_symmetry_Int_Tables_number   1
_chemical_formula_structural   Fe2(CO)9
_chemical_formula_sum   'Fe8 C36 O36'
_cell_volume   1172.80615788
_cell_formula_units_Z   4
loop_
 _symmetry_equiv_pos_site_id
 _symmetry_equiv_pos_as_xyz
  1  'x, y, z'
loop_
 _atom_site_type_symbol
 _atom_site_label
 _atom_site_symmetry_multiplicity
 _atom_site_fract_x
 _atom_site_fract_y
 _atom_site_fract_z
 _atom_site_occupancy
 _atom_site_charge
Fe  Fe1  1  0.31730000  0.31730000  0.31730000  1.0 1.0682071763
Fe  Fe2  1  0.68270000  0.68270000  0.31730000  1.0 1.0682071763
Fe  Fe3  1  0.68270000  0.31730000  0.68270000  1.0 1.0682071763
Fe  Fe4  1  0.31730000  0.68270000  0.68270000  1.0 1.0682071763
Fe  Fe5  1  0.68270000  0.68270000  0.68270000  1.0 1.0682071763
Fe  Fe6  1  0.31730000  0.31730000  0.68270000  1.0 1.0682071763
Fe  Fe7  1  0.31730000  0.68270000  0.31730000  1.0 1.0682071763
Fe  Fe8  1  0.68270000  0.31730000  0.31730000  1.0 1.0682071763
C  C1  1  0.37360000  0.36500000  0.06670000  1.0 0.2064296863
C  C2  1  0.62640000  0.63500000  0.06670000  1.0 0.2064296863
C  C3  1  0.62640000  0.36500000  0.93330000  1.0 0.2064296863
C  C4  1  0.37360000  0.63500000  0.93330000  1.0 0.2064296863
C  C5  1  0.06670000  0.37360000  0.36500000  1.0 0.2064296863
C  C6  1  0.06670000  0.62640000  0.63500000  1.0 0.2064296863
C  C7  1  0.93330000  0.62640000  0.36500000  1.0 0.2064296863
C  C8  1  0.93330000  0.37360000  0.63500000  1.0 0.2064296863
C  C9  1  0.36500000  0.06670000  0.37360000  1.0 0.2064296863
C  C10  1  0.63500000  0.06670000  0.62640000  1.0 0.2064296863
C  C11  1  0.36500000  0.93330000  0.62640000  1.0 0.2064296863
C  C12  1  0.63500000  0.93330000  0.37360000  1.0 0.2064296863
C  C13  1  0.62640000  0.63500000  0.93330000  1.0 0.2064296863
C  C14  1  0.37360000  0.36500000  0.93330000  1.0 0.2064296863
C  C15  1  0.37360000  0.63500000  0.06670000  1.0 0.2064296863
C  C16  1  0.62640000  0.36500000  0.06670000  1.0 0.2064296863
C  C17  1  0.93330000  0.62640000  0.63500000  1.0 0.2064296863
C  C18  1  0.93330000  0.37360000  0.36500000  1.0 0.2064296863
C  C19  1  0.06670000  0.37360000  0.63500000  1.0 0.2064296863
C  C20  1  0.06670000  0.62640000  0.36500000  1.0 0.2064296863
C  C21  1  0.63500000  0.93330000  0.62640000  1.0 0.2064296863
C  C22  1  0.36500000  0.93330000  0.37360000  1.0 0.2064296863
C  C23  1  0.63500000  0.06670000  0.37360000  1.0 0.2064296863
C  C24  1  0.36500000  0.06670000  0.62640000  1.0 0.2064296863
C  C25  1  0.50000000  0.37300000  0.13050000  1.0 0.0689296535
C  C26  1  0.50000000  0.62700000  0.13050000  1.0 0.0689296535
C  C27  1  0.50000000  0.37300000  0.86950000  1.0 0.0689296535
C  C28  1  0.50000000  0.62700000  0.86950000  1.0 0.0689296535
C  C29  1  0.13050000  0.50000000  0.37300000  1.0 0.0689296535
C  C30  1  0.13050000  0.50000000  0.62700000  1.0 0.0689296535
C  C31  1  0.86950000  0.50000000  0.37300000  1.0 0.0689296535
C  C32  1  0.86950000  0.50000000  0.62700000  1.0 0.0689296535
C  C33  1  0.37300000  0.13050000  0.50000000  1.0 0.0689296535
C  C34  1  0.62700000  0.13050000  0.50000000  1.0 0.0689296535
C  C35  1  0.37300000  0.86950000  0.50000000  1.0 0.0689296535
C  C36  1  0.62700000  0.86950000  0.50000000  1.0 0.0689296535
O  O1  1  0.27800000  0.35220000  0.13310000  1.0 -0.3503645516
O  O2  1  0.72200000  0.64780000  0.13310000  1.0 -0.3503645516
O  O3  1  0.72200000  0.35220000  0.86690000  1.0 -0.3503645516
O  O4  1  0.27800000  0.64780000  0.86690000  1.0 -0.3503645516
O  O5  1  0.13310000  0.27800000  0.35220000  1.0 -0.3503645516
O  O6  1  0.13310000  0.72200000  0.64780000  1.0 -0.3503645516
O  O7  1  0.86690000  0.72200000  0.35220000  1.0 -0.3503645516
O  O8  1  0.86690000  0.27800000  0.64780000  1.0 -0.3503645516
O  O9  1  0.35220000  0.13310000  0.27800000  1.0 -0.3503645516
O  O10  1  0.64780000  0.13310000  0.72200000  1.0 -0.3503645516
O  O11  1  0.35220000  0.86690000  0.72200000  1.0 -0.3503645516
O  O12  1  0.64780000  0.86690000  0.27800000  1.0 -0.3503645516
O  O13  1  0.72200000  0.64780000  0.86690000  1.0 -0.3503645516
O  O14  1  0.27800000  0.35220000  0.86690000  1.0 -0.3503645516
O  O15  1  0.27800000  0.64780000  0.13310000  1.0 -0.3503645516
O  O16  1  0.72200000  0.35220000  0.13310000  1.0 -0.3503645516
O  O17  1  0.86690000  0.72200000  0.64780000  1.0 -0.3503645516
O  O18  1  0.86690000  0.27800000  0.35220000  1.0 -0.3503645516
O  O19  1  0.13310000  0.27800000  0.64780000  1.0 -0.3503645516
O  O20  1  0.13310000  0.72200000  0.35220000  1.0 -0.3503645516
O  O21  1  0.64780000  0.86690000  0.72200000  1.0 -0.3503645516
O  O22  1  0.35220000  0.86690000  0.27800000  1.0 -0.3503645516
O  O23  1  0.64780000  0.13310000  0.27800000  1.0 -0.3503645516
O  O24  1  0.35220000  0.13310000  0.72200000  1.0 -0.3503645516
O  O25  1  0.50000000  0.36760000  0.26380000  1.0 -0.4931980404
O  O26  1  0.50000000  0.63240000  0.26380000  1.0 -0.4931980404
O  O27  1  0.50000000  0.36760000  0.73620000  1.0 -0.4931980404
O  O28  1  0.50000000  0.63240000  0.73620000  1.0 -0.4931980404
O  O29  1  0.26380000  0.50000000  0.36760000  1.0 -0.4931980404
O  O30  1  0.26380000  0.50000000  0.63240000  1.0 -0.4931980404
O  O31  1  0.73620000  0.50000000  0.36760000  1.0 -0.4931980404
O  O32  1  0.73620000  0.50000000  0.63240000  1.0 -0.4931980404
O  O33  1  0.36760000  0.26380000  0.50000000  1.0 -0.4931980404
O  O34  1  0.63240000  0.26380000  0.50000000  1.0 -0.4931980404
O  O35  1  0.36760000  0.73620000  0.50000000  1.0 -0.4931980404
O  O36  1  0.63240000  0.73620000  0.50000000  1.0 -0.4931980404
