# DDEC6 charges by PACMAN v1.1 (https://github.com/mtap-research/PACMAN-charge/)
data_ja0c08794_si_006_FSR_pacman
_symmetry_space_group_name_H-M   'P 1'
_cell_length_a   7.06420000
_cell_length_b   7.06420000
_cell_length_c   19.77200000
_cell_angle_alpha   90.00000000
_cell_angle_beta   90.00000000
_cell_angle_gamma   90.00000000
_symmetry_Int_Tables_number   1
_chemical_formula_structural   ZnC7NO4
_chemical_formula_sum   'Zn4 C28 N4 O16'
_cell_volume   986.68056667
_cell_formula_units_Z   4
loop_
 _symmetry_equiv_pos_site_id
 _symmetry_equiv_pos_as_xyz
  1  'x, y, z'
loop_
 _atom_site_type_symbol
 _atom_site_label
 _atom_site_symmetry_multiplicity
 _atom_site_fract_x
 _atom_site_fract_y
 _atom_site_fract_z
 _atom_site_occupancy
 _atom_site_charge
Zn  Zn1  1  0.00000000  0.00000000  0.27805000  1.0 0.8708641014
Zn  Zn2  1  0.50000000  0.50000000  0.77805000  1.0 0.8708641014
Zn  Zn3  1  0.50000000  0.50000000  0.22195000  1.0 0.8708641014
Zn  Zn4  1  0.00000000  0.00000000  0.72195000  1.0 0.8708641014
C  C1  1  0.00000000  0.00000000  0.03730000  1.0 0.0913160356
C  C2  1  0.50000000  0.50000000  0.53730000  1.0 0.0913160356
C  C3  1  0.50000000  0.50000000  0.46270000  1.0 0.0913160356
C  C4  1  0.00000000  0.00000000  0.96270000  1.0 0.0913160356
C  C5  1  0.24140000  0.75860000  0.18930000  1.0 0.5653226755
C  C6  1  0.12900000  0.87100000  0.07310000  1.0 -0.0165320549
C  C7  1  0.11830000  0.88170000  0.14380000  1.0 0.1194613284
C  C8  1  0.75860000  0.24140000  0.18930000  1.0 0.5653226755
C  C9  1  0.87100000  0.12900000  0.07310000  1.0 -0.0165320549
C  C10  1  0.88170000  0.11830000  0.14380000  1.0 0.1194613284
C  C11  1  0.74140000  0.74140000  0.68930000  1.0 0.5647195957
C  C12  1  0.62900000  0.62900000  0.57310000  1.0 -0.0165320549
C  C13  1  0.61830000  0.61830000  0.64380000  1.0 0.1194613284
C  C14  1  0.25860000  0.25860000  0.68930000  1.0 0.5653226755
C  C15  1  0.37100000  0.37100000  0.57310000  1.0 -0.0165320549
C  C16  1  0.38170000  0.38170000  0.64380000  1.0 0.1194613284
C  C17  1  0.25860000  0.25860000  0.31070000  1.0 0.5653226755
C  C18  1  0.37100000  0.37100000  0.42690000  1.0 -0.0165320549
C  C19  1  0.38170000  0.38170000  0.35620000  1.0 0.1194613284
C  C20  1  0.74140000  0.74140000  0.31070000  1.0 0.5647195957
C  C21  1  0.62900000  0.62900000  0.42690000  1.0 -0.0165320549
C  C22  1  0.61830000  0.61830000  0.35620000  1.0 0.1194613284
C  C23  1  0.75860000  0.24140000  0.81070000  1.0 0.5653226755
C  C24  1  0.87100000  0.12900000  0.92690000  1.0 -0.0165320549
C  C25  1  0.88170000  0.11830000  0.85620000  1.0 0.1194613284
C  C26  1  0.24140000  0.75860000  0.81070000  1.0 0.5653226755
C  C27  1  0.12900000  0.87100000  0.92690000  1.0 -0.0165320549
C  C28  1  0.11830000  0.88170000  0.85620000  1.0 0.1194613284
N  N1  1  0.00000000  0.00000000  0.17690000  1.0 -0.2714629837
N  N2  1  0.50000000  0.50000000  0.67690000  1.0 -0.2714629837
N  N3  1  0.50000000  0.50000000  0.32310000  1.0 -0.2714629837
N  N4  1  0.00000000  0.00000000  0.82310000  1.0 -0.2714629837
O  O1  1  0.22010000  0.77990000  0.25180000  1.0 -0.5300896832
O  O2  1  0.77990000  0.22010000  0.25180000  1.0 -0.5300896832
O  O3  1  0.72010000  0.72010000  0.75180000  1.0 -0.5300896832
O  O4  1  0.27990000  0.27990000  0.75180000  1.0 -0.5300896832
O  O5  1  0.27990000  0.27990000  0.24820000  1.0 -0.5300896832
O  O6  1  0.72010000  0.72010000  0.24820000  1.0 -0.5300896832
O  O7  1  0.77990000  0.22010000  0.74820000  1.0 -0.5300896832
O  O8  1  0.22010000  0.77990000  0.74820000  1.0 -0.5300896832
O  O9  1  0.14370000  0.14370000  0.33910000  1.0 -0.4833700725
O  O10  1  0.85630000  0.85630000  0.33910000  1.0 -0.4833700725
O  O11  1  0.35630000  0.64370000  0.83910000  1.0 -0.4833700725
O  O12  1  0.64370000  0.35630000  0.83910000  1.0 -0.4833700725
O  O13  1  0.35630000  0.64370000  0.16090000  1.0 -0.4833700725
O  O14  1  0.64370000  0.35630000  0.16090000  1.0 -0.4833700725
O  O15  1  0.14370000  0.14370000  0.66090000  1.0 -0.4833700725
O  O16  1  0.85630000  0.85630000  0.66090000  1.0 -0.4833700725
