# DDEC6 charges by PACMAN v1.1 (https://github.com/mtap-research/PACMAN-charge/)
data_c8dt02858c2_3_ASR_pacman
_symmetry_space_group_name_H-M   'P 1'
_cell_length_a   9.17600000
_cell_length_b   17.88900000
_cell_length_c   22.85700000
_cell_angle_alpha   90.00000000
_cell_angle_beta   90.00000000
_cell_angle_gamma   90.00000000
_symmetry_Int_Tables_number   1
_chemical_formula_structural   Zn2H35C45(N5O4)2
_chemical_formula_sum   'Zn4 H70 C90 N20 O16'
_cell_volume   3751.96429865
_cell_formula_units_Z   2
loop_
 _symmetry_equiv_pos_site_id
 _symmetry_equiv_pos_as_xyz
  1  'x, y, z'
loop_
 _atom_site_type_symbol
 _atom_site_label
 _atom_site_symmetry_multiplicity
 _atom_site_fract_x
 _atom_site_fract_y
 _atom_site_fract_z
 _atom_site_occupancy
 _atom_site_charge
Zn  Zn1  1  0.97625000  0.30489000  0.89946000  1.0 0.8032238782
Zn  Zn2  1  0.97625000  0.69511000  0.10054000  1.0 0.8032238782
Zn  Zn3  1  0.02375000  0.80489000  0.60054000  1.0 0.8032238782
Zn  Zn4  1  0.02375000  0.19511000  0.39946000  1.0 0.8032238782
H  H1  1  0.84360000  0.09480000  0.55590000  1.0 0.1224190576
H  H2  1  0.84360000  0.90520000  0.44410000  1.0 0.1224190576
H  H3  1  0.15640000  0.59480000  0.94410000  1.0 0.1224190576
H  H4  1  0.15640000  0.40520000  0.05590000  1.0 0.1224190576
H  H5  1  0.96470000  0.97150000  0.55430000  1.0 0.1360145808
H  H6  1  0.96470000  0.02850000  0.44570000  1.0 0.1360145808
H  H7  1  0.03530000  0.47150000  0.94570000  1.0 0.1360145808
H  H8  1  0.03530000  0.52850000  0.05430000  1.0 0.1360145808
H  H9  1  0.46650000  0.16140000  0.44830000  1.0 0.1283842665
H  H10  1  0.46650000  0.83860000  0.55170000  1.0 0.1283842665
H  H11  1  0.53350000  0.66140000  0.05170000  1.0 0.1283842665
H  H12  1  0.53350000  0.33860000  0.94830000  1.0 0.1283842665
H  H13  1  0.28320000  0.06470000  0.58490000  1.0 0.1283842665
H  H14  1  0.28320000  0.93530000  0.41510000  1.0 0.1283842665
H  H15  1  0.71680000  0.56470000  0.91510000  1.0 0.1283842665
H  H16  1  0.71680000  0.43530000  0.08490000  1.0 0.1283842665
H  H17  1  0.50660000  0.04600000  0.62550000  1.0 0.1224190576
H  H18  1  0.50660000  0.95400000  0.37450000  1.0 0.1224190576
H  H19  1  0.49340000  0.54600000  0.87450000  1.0 0.1224190576
H  H20  1  0.49340000  0.45400000  0.12550000  1.0 0.1224190576
H  H21  1  0.68940000  0.14560000  0.49060000  1.0 0.1283842665
H  H22  1  0.68940000  0.85440000  0.50940000  1.0 0.1283842665
H  H23  1  0.31060000  0.64560000  0.00940000  1.0 0.1283842665
H  H24  1  0.31060000  0.35440000  0.99060000  1.0 0.1283842665
H  H25  1  0.03030000  0.12720000  0.61910000  1.0 0.1283842665
H  H26  1  0.03030000  0.87280000  0.38090000  1.0 0.1283842665
H  H27  1  0.96970000  0.62720000  0.88090000  1.0 0.1283842665
H  H28  1  0.96970000  0.37280000  0.11910000  1.0 0.1283842665
H  H29  1  0.11370000  0.19250000  0.70030000  1.0 0.1283842665
H  H30  1  0.11370000  0.80750000  0.29970000  1.0 0.1283842665
H  H31  1  0.88630000  0.69250000  0.79970000  1.0 0.1283842665
H  H32  1  0.88630000  0.30750000  0.20030000  1.0 0.1283842665
H  H33  1  0.75450000  0.87030000  0.67740000  1.0 0.1283842665
H  H34  1  0.75450000  0.12970000  0.32260000  1.0 0.1283842665
H  H35  1  0.24550000  0.37030000  0.82260000  1.0 0.1283842665
H  H36  1  0.24550000  0.62970000  0.17740000  1.0 0.1283842665
H  H37  1  0.62740000  0.17040000  0.66390000  1.0 0.1283842665
H  H38  1  0.62740000  0.82960000  0.33610000  1.0 0.1283842665
H  H39  1  0.37260000  0.67040000  0.83610000  1.0 0.1283842665
H  H40  1  0.37260000  0.32960000  0.16390000  1.0 0.1283842665
H  H41  1  0.70980000  0.23330000  0.74730000  1.0 0.1283842665
H  H42  1  0.70980000  0.76670000  0.25270000  1.0 0.1360145808
H  H43  1  0.29020000  0.73330000  0.75270000  1.0 0.1360145808
H  H44  1  0.29020000  0.26670000  0.24730000  1.0 0.1360145808
H  H45  1  0.12720000  0.11180000  0.87180000  1.0 0.1569314787
H  H46  1  0.12720000  0.88820000  0.12820000  1.0 0.1569314787
H  H47  1  0.87280000  0.61180000  0.62820000  1.0 0.1569314787
H  H48  1  0.87280000  0.38820000  0.37180000  1.0 0.1569314787
H  H49  1  0.28850000  0.12810000  0.89050000  1.0 0.1283842665
H  H50  1  0.28850000  0.87190000  0.10950000  1.0 0.1283842665
H  H51  1  0.71150000  0.62810000  0.60950000  1.0 0.1283842665
H  H52  1  0.71150000  0.37190000  0.39050000  1.0 0.1283842665
H  H53  1  0.19320000  0.19180000  0.86310000  1.0 0.1503121891
H  H54  1  0.19320000  0.80820000  0.13690000  1.0 0.1503121891
H  H55  1  0.80680000  0.69180000  0.63690000  1.0 0.1503121891
H  H56  1  0.80680000  0.30820000  0.36310000  1.0 0.1503121891
H  H57  1  0.14680000  0.17020000  0.07420000  1.0 0.1503121891
H  H58  1  0.14680000  0.82980000  0.92580000  1.0 0.1503121891
H  H59  1  0.85320000  0.67020000  0.42580000  1.0 0.1503121891
H  H60  1  0.85320000  0.32980000  0.57420000  1.0 0.1503121891
H  H61  1  0.34880000  0.06990000  0.02920000  1.0 0.1024567736
H  H62  1  0.34880000  0.93010000  0.97080000  1.0 0.1024567736
H  H63  1  0.65120000  0.56990000  0.47080000  1.0 0.1024567736
H  H64  1  0.65120000  0.43010000  0.52920000  1.0 0.1024567736
H  H65  1  0.34680000  0.06270000  0.96070000  1.0 0.1024567736
H  H66  1  0.34680000  0.93730000  0.03930000  1.0 0.1024567736
H  H67  1  0.65320000  0.56270000  0.53930000  1.0 0.1024567736
H  H68  1  0.65320000  0.43730000  0.46070000  1.0 0.1024567736
H  H69  1  0.12590000  0.00400000  0.03430000  0.5 0.1024567736
H  H70  1  0.12590000  0.99600000  0.96570000  0.5 0.1024567736
H  H71  1  0.87410000  0.50400000  0.46570000  0.5 0.1024567736
H  H72  1  0.87410000  0.49600000  0.53430000  0.5 0.1058615149
C  C1  1  0.62360000  0.09360000  0.56258000  1.0 0.065883007
C  C2  1  0.62360000  0.90640000  0.43742000  1.0 0.065883007
C  C3  1  0.37640000  0.59360000  0.93742000  1.0 0.065883007
C  C4  1  0.37640000  0.40640000  0.06258000  1.0 0.065883007
C  C5  1  0.77510000  0.08365000  0.58768000  1.0 -0.0295991226
C  C6  1  0.77510000  0.91635000  0.41232000  1.0 -0.0295991226
C  C7  1  0.22490000  0.58365000  0.91232000  1.0 -0.0295991226
C  C8  1  0.22490000  0.41635000  0.08768000  1.0 -0.0295991226
C  C9  1  0.35100000  0.11460000  0.51183000  1.0 -0.012737957
C  C10  1  0.35100000  0.88540000  0.48817000  1.0 -0.012737957
C  C11  1  0.64900000  0.61460000  0.98817000  1.0 -0.012737957
C  C12  1  0.64900000  0.38540000  0.01183000  1.0 -0.012737957
C  C13  1  0.81780000  0.13370000  0.63878000  1.0 0.0756176562
C  C14  1  0.81780000  0.86630000  0.36122000  1.0 0.0756176562
C  C15  1  0.18220000  0.63370000  0.86122000  1.0 0.0756176562
C  C16  1  0.18220000  0.36630000  0.13878000  1.0 0.0756176562
C  C17  1  0.20110000  0.12570000  0.48585000  1.0 0.5644028486
C  C18  1  0.20110000  0.87430000  0.51415000  1.0 0.5644028486
C  C19  1  0.79890000  0.62570000  0.01415000  1.0 0.5644028486
C  C20  1  0.79890000  0.37430000  0.98585000  1.0 0.5644028486
C  C21  1  0.89930000  0.95994000  0.58408000  1.0 0.0927253292
C  C22  1  0.89930000  0.04006000  0.41592000  1.0 0.0927253292
C  C23  1  0.10070000  0.45994000  0.91592000  1.0 0.0927253292
C  C24  1  0.10070000  0.54006000  0.08408000  1.0 0.0927253292
C  C25  1  0.47320000  0.13820000  0.48459000  1.0 -0.0917674972
C  C26  1  0.47320000  0.86180000  0.51541000  1.0 -0.0917674972
C  C27  1  0.52680000  0.63820000  0.01541000  1.0 -0.0917674972
C  C28  1  0.52680000  0.36180000  0.98459000  1.0 -0.0917674972
C  C29  1  0.36590000  0.08080000  0.56500000  1.0 -0.0995817407
C  C30  1  0.36590000  0.91920000  0.43500000  1.0 -0.0995817407
C  C31  1  0.63410000  0.58080000  0.93500000  1.0 -0.0995817407
C  C32  1  0.63410000  0.41920000  0.06500000  1.0 -0.0995817407
C  C33  1  0.49980000  0.07000000  0.58954000  1.0 -0.1424076147
C  C34  1  0.49980000  0.93000000  0.41046000  1.0 -0.1424076147
C  C35  1  0.50020000  0.57000000  0.91046000  1.0 -0.1424076147
C  C36  1  0.50020000  0.43000000  0.08954000  1.0 -0.1424076147
C  C37  1  0.60700000  0.12810000  0.51000000  1.0 -0.1680002957
C  C38  1  0.60700000  0.87190000  0.49000000  1.0 -0.1680002957
C  C39  1  0.39300000  0.62810000  0.99000000  1.0 -0.1680002957
C  C40  1  0.39300000  0.37190000  0.01000000  1.0 -0.1680002957
C  C41  1  0.97160000  0.25620000  0.78600000  1.0 0.5644028486
C  C42  1  0.97160000  0.74380000  0.21400000  1.0 0.5644028486
C  C43  1  0.02840000  0.75620000  0.71400000  1.0 0.5644028486
C  C44  1  0.02840000  0.24380000  0.28600000  1.0 0.5644028486
C  C45  1  0.96430000  0.14580000  0.64630000  1.0 -0.1611248589
C  C46  1  0.96430000  0.85420000  0.35370000  1.0 -0.1611248589
C  C47  1  0.03570000  0.64580000  0.85370000  1.0 -0.1611248589
C  C48  1  0.03570000  0.35420000  0.14630000  1.0 -0.1611248589
C  C49  1  0.01430000  0.18580000  0.69440000  1.0 -0.0917674972
C  C50  1  0.01430000  0.81420000  0.30560000  1.0 -0.0917674972
C  C51  1  0.98570000  0.68580000  0.80560000  1.0 -0.0917674972
C  C52  1  0.98570000  0.31420000  0.19440000  1.0 -0.0917674972
C  C53  1  0.78470000  0.90630000  0.65068000  1.0 0.1735968628
C  C54  1  0.78470000  0.09370000  0.34932000  1.0 0.1735968628
C  C55  1  0.21530000  0.40630000  0.84932000  1.0 0.1735968628
C  C56  1  0.21530000  0.59370000  0.15068000  1.0 0.1735968628
C  C57  1  0.91230000  0.21600000  0.73402000  1.0 -0.0206185352
C  C58  1  0.91230000  0.78400000  0.26598000  1.0 -0.0206185352
C  C59  1  0.08770000  0.71600000  0.76598000  1.0 -0.0206185352
C  C60  1  0.08770000  0.28400000  0.23402000  1.0 -0.0206185352
C  C61  1  0.72640000  0.17060000  0.67270000  1.0 -0.1492508202
C  C62  1  0.72640000  0.82940000  0.32730000  1.0 -0.1492508202
C  C63  1  0.27360000  0.67060000  0.82730000  1.0 -0.1492508202
C  C64  1  0.27360000  0.32940000  0.17270000  1.0 -0.1492508202
C  C65  1  0.77710000  0.21060000  0.72260000  1.0 -0.0759111791
C  C66  1  0.77710000  0.78940000  0.27740000  1.0 -0.0759111791
C  C67  1  0.22290000  0.71060000  0.77740000  1.0 -0.0759111791
C  C68  1  0.22290000  0.28940000  0.22260000  1.0 -0.0759111791
C  C69  1  0.19200000  0.14860000  0.88790000  1.0 -0.5362782328
C  C70  1  0.19200000  0.85140000  0.11210000  1.0 -0.5362782328
C  C71  1  0.80800000  0.64860000  0.61210000  1.0 -0.5362782328
C  C72  1  0.80800000  0.35140000  0.38790000  1.0 -0.5362782328
C  C73  1  0.13790000  0.18000000  0.03440000  1.0 -0.1314423269
C  C74  1  0.13790000  0.82000000  0.96560000  1.0 -0.1314423269
C  C75  1  0.86210000  0.68000000  0.46560000  1.0 -0.1314423269
C  C76  1  0.86210000  0.32000000  0.53440000  1.0 -0.1314423269
C  C77  1  0.06810000  0.23460000  0.01300000  1.0 -0.0687867066
C  C78  1  0.06810000  0.76540000  0.98700000  1.0 -0.0687867066
C  C79  1  0.93190000  0.73460000  0.48700000  1.0 -0.0687867066
C  C80  1  0.93190000  0.26540000  0.51300000  1.0 -0.0687867066
C  C81  1  0.18760000  0.00000000  0.00000000  1.0 -0.2141800373
C  C82  1  0.81240000  0.50000000  0.50000000  1.0 -0.2187514304
C  C83  1  0.14480000  0.16860000  0.94280000  1.0 0.3160565795
C  C84  1  0.14480000  0.83140000  0.05720000  1.0 0.3160565795
C  C85  1  0.85520000  0.66860000  0.55720000  1.0 0.3160565795
C  C86  1  0.85520000  0.33140000  0.44280000  1.0 0.3160565795
C  C87  1  0.28580000  0.06750000  0.99520000  1.0 -0.1314423269
C  C88  1  0.28580000  0.93250000  0.00480000  1.0 -0.1314423269
C  C89  1  0.71420000  0.56750000  0.50480000  1.0 -0.1314423269
C  C90  1  0.71420000  0.43250000  0.49520000  1.0 -0.1314423269
N  N1  1  0.89340000  0.89405000  0.61220000  1.0 -0.3318476378
N  N2  1  0.89340000  0.10595000  0.38780000  1.0 -0.3318476378
N  N3  1  0.10660000  0.39405000  0.88780000  1.0 -0.3318476378
N  N4  1  0.10660000  0.60595000  0.11220000  1.0 -0.3318476378
N  N5  1  0.80060000  0.00533000  0.60441000  1.0 0.1569314787
N  N6  1  0.80060000  0.99467000  0.39559000  1.0 0.1569314787
N  N7  1  0.19940000  0.50533000  0.89559000  1.0 0.1569314787
N  N8  1  0.19940000  0.49467000  0.10441000  1.0 0.1569314787
N  N9  1  0.72610000  0.97090000  0.64765000  1.0 -0.2455053105
N  N10  1  0.72610000  0.02910000  0.35235000  1.0 -0.2455053105
N  N11  1  0.27390000  0.47090000  0.85235000  1.0 -0.2455053105
N  N12  1  0.27390000  0.52910000  0.14765000  1.0 -0.2455053105
N  N13  1  0.07250000  0.22820000  0.95130000  1.0 -0.3502677678
N  N14  1  0.07250000  0.77180000  0.04870000  1.0 -0.3502677678
N  N15  1  0.92750000  0.72820000  0.54870000  1.0 -0.3502677678
N  N16  1  0.92750000  0.27180000  0.45130000  1.0 -0.3502677678
N  N17  1  0.19840000  0.13750000  0.99110000  1.0 -0.012737957
N  N18  1  0.19840000  0.86250000  0.00890000  1.0 -0.0206185352
N  N19  1  0.80160000  0.63750000  0.50890000  1.0 -0.0206185352
N  N20  1  0.80160000  0.36250000  0.49110000  1.0 -0.012737957
O  O1  1  0.09190000  0.10301000  0.51186000  1.0 -0.5623415239
O  O2  1  0.09190000  0.89699000  0.48814000  1.0 -0.5623415239
O  O3  1  0.90810000  0.60301000  0.98814000  1.0 -0.5623415239
O  O4  1  0.90810000  0.39699000  0.01186000  1.0 -0.5623415239
O  O5  1  0.19950000  0.16179000  0.43770000  1.0 -0.5324039756
O  O6  1  0.19950000  0.83821000  0.56230000  1.0 -0.5324039756
O  O7  1  0.80050000  0.66179000  0.06230000  1.0 -0.5324039756
O  O8  1  0.80050000  0.33821000  0.93770000  1.0 -0.5324039756
O  O9  1  0.88640000  0.26650000  0.82729000  1.0 -0.4995727538
O  O10  1  0.88640000  0.73350000  0.17271000  1.0 -0.4995727538
O  O11  1  0.11360000  0.76650000  0.67271000  1.0 -0.4995727538
O  O12  1  0.11360000  0.23350000  0.32729000  1.0 -0.4995727538
O  O13  1  0.10580000  0.26920000  0.79110000  1.0 -0.5653149783
O  O14  1  0.10580000  0.73080000  0.20890000  1.0 -0.5623415239
O  O15  1  0.89420000  0.76920000  0.70890000  1.0 -0.5623415239
O  O16  1  0.89420000  0.23080000  0.29110000  1.0 -0.5623415239
