# DDEC6 charges by PACMAN v1.1 (https://github.com/mtap-research/PACMAN-charge/)
data_c5dt03710g2_8_FSR_pacman
_symmetry_space_group_name_H-M   'P 1'
_cell_length_a   14.97560000
_cell_length_b   14.97560000
_cell_length_c   19.20260000
_cell_angle_alpha   90.00000000
_cell_angle_beta   90.00000000
_cell_angle_gamma   90.00000000
_symmetry_Int_Tables_number   1
_chemical_formula_structural   Zn4H37C44(NO4)4
_chemical_formula_sum   'Zn8 H74 C88 N8 O32'
_cell_volume   4306.54012926
_cell_formula_units_Z   2
loop_
 _symmetry_equiv_pos_site_id
 _symmetry_equiv_pos_as_xyz
  1  'x, y, z'
loop_
 _atom_site_type_symbol
 _atom_site_label
 _atom_site_symmetry_multiplicity
 _atom_site_fract_x
 _atom_site_fract_y
 _atom_site_fract_z
 _atom_site_occupancy
 _atom_site_charge
Zn  Zn1  1  0.50000000  0.00000000  0.33481000  1.0 0.6806462003
Zn  Zn2  1  0.00000000  0.50000000  0.16519000  1.0 0.685274948
Zn  Zn3  1  0.00000000  0.50000000  0.66519000  1.0 0.685274948
Zn  Zn4  1  0.50000000  0.00000000  0.83481000  1.0 0.6806462003
Zn  Zn5  1  0.50000000  0.00000000  0.18158000  1.0 0.6806462003
Zn  Zn6  1  0.00000000  0.50000000  0.31842000  1.0 0.6806462003
Zn  Zn7  1  0.00000000  0.50000000  0.81842000  1.0 0.6806462003
Zn  Zn8  1  0.50000000  0.00000000  0.68158000  1.0 0.6806462003
H  H1  1  0.25150000  0.84840000  0.35860000  1.0 0.1310136282
H  H2  1  0.74850000  0.15160000  0.35860000  1.0 0.1310136282
H  H3  1  0.65160000  0.75150000  0.35860000  1.0 0.1310136282
H  H4  1  0.34840000  0.24850000  0.35860000  1.0 0.1310136282
H  H5  1  0.24850000  0.34840000  0.14140000  1.0 0.1310136282
H  H6  1  0.75150000  0.65160000  0.14140000  1.0 0.1310136282
H  H7  1  0.84840000  0.25150000  0.14140000  1.0 0.1310136282
H  H8  1  0.15160000  0.74850000  0.14140000  1.0 0.1310136282
H  H9  1  0.24850000  0.65160000  0.64140000  1.0 0.1310136282
H  H10  1  0.75150000  0.34840000  0.64140000  1.0 0.1310136282
H  H11  1  0.84840000  0.74850000  0.64140000  1.0 0.1310136282
H  H12  1  0.15160000  0.25150000  0.64140000  1.0 0.1310136282
H  H13  1  0.25150000  0.15160000  0.85860000  1.0 0.1310136282
H  H14  1  0.74850000  0.84840000  0.85860000  1.0 0.1310136282
H  H15  1  0.65160000  0.24850000  0.85860000  1.0 0.1310136282
H  H16  1  0.34840000  0.75150000  0.85860000  1.0 0.1310136282
H  H17  1  0.25980000  0.86000000  0.14810000  1.0 0.1310136282
H  H18  1  0.74020000  0.14000000  0.14810000  1.0 0.1310136282
H  H19  1  0.64000000  0.75980000  0.14810000  1.0 0.1310136282
H  H20  1  0.36000000  0.24020000  0.14810000  1.0 0.1310136282
H  H21  1  0.24020000  0.36000000  0.35190000  1.0 0.1310136282
H  H22  1  0.75980000  0.64000000  0.35190000  1.0 0.1310136282
H  H23  1  0.86000000  0.25980000  0.35190000  1.0 0.1310136282
H  H24  1  0.14000000  0.74020000  0.35190000  1.0 0.1310136282
H  H25  1  0.24020000  0.64000000  0.85190000  1.0 0.1310136282
H  H26  1  0.75980000  0.36000000  0.85190000  1.0 0.1310136282
H  H27  1  0.86000000  0.74020000  0.85190000  1.0 0.1310136282
H  H28  1  0.14000000  0.25980000  0.85190000  1.0 0.1310136282
H  H29  1  0.25980000  0.14000000  0.64810000  1.0 0.1310136282
H  H30  1  0.74020000  0.86000000  0.64810000  1.0 0.1310136282
H  H31  1  0.64000000  0.24020000  0.64810000  1.0 0.1310136282
H  H32  1  0.36000000  0.75980000  0.64810000  1.0 0.1310136282
H  H33  1  0.47050000  0.86880000  0.45050000  0.375 0.0780924946
H  H34  1  0.52950000  0.13120000  0.45050000  0.375 0.0780924946
H  H35  1  0.63120000  0.97050000  0.45050000  0.375 0.0780924946
H  H36  1  0.36880000  0.02950000  0.45050000  0.375 0.0780924946
H  H37  1  0.02950000  0.36880000  0.04950000  0.375 0.0780924946
H  H38  1  0.97050000  0.63120000  0.04950000  0.375 0.0780924946
H  H39  1  0.86880000  0.47050000  0.04950000  0.375 0.0780924946
H  H40  1  0.13120000  0.52950000  0.04950000  0.375 0.0780924946
H  H41  1  0.02950000  0.63120000  0.54950000  0.375 0.0780924946
H  H42  1  0.97050000  0.36880000  0.54950000  0.375 0.0780924946
H  H43  1  0.86880000  0.52950000  0.54950000  0.375 0.0780924946
H  H44  1  0.13120000  0.47050000  0.54950000  0.375 0.0780924946
H  H45  1  0.47050000  0.13120000  0.95050000  0.375 0.0780924946
H  H46  1  0.52950000  0.86880000  0.95050000  0.375 0.0780924946
H  H47  1  0.63120000  0.02950000  0.95050000  0.375 0.0780924946
H  H48  1  0.36880000  0.97050000  0.95050000  0.375 0.0780924946
H  H49  1  0.38420000  0.93200000  0.45180000  0.375 0.0917282017
H  H50  1  0.61580000  0.06800000  0.45180000  0.375 0.0917282017
H  H51  1  0.56800000  0.88420000  0.45180000  0.375 0.0917282017
H  H52  1  0.43200000  0.11580000  0.45180000  0.375 0.0917282017
H  H53  1  0.11580000  0.43200000  0.04820000  0.375 0.0917282017
H  H54  1  0.88420000  0.56800000  0.04820000  0.375 0.0917282017
H  H55  1  0.93200000  0.38420000  0.04820000  0.375 0.0917282017
H  H56  1  0.06800000  0.61580000  0.04820000  0.375 0.0917282017
H  H57  1  0.11580000  0.56800000  0.54820000  0.375 0.0917282017
H  H58  1  0.88420000  0.43200000  0.54820000  0.375 0.0917282017
H  H59  1  0.93200000  0.61580000  0.54820000  0.375 0.0917282017
H  H60  1  0.06800000  0.38420000  0.54820000  0.375 0.0917282017
H  H61  1  0.38420000  0.06800000  0.95180000  0.375 0.0917282017
H  H62  1  0.61580000  0.93200000  0.95180000  0.375 0.0917282017
H  H63  1  0.56800000  0.11580000  0.95180000  0.375 0.0917282017
H  H64  1  0.43200000  0.88420000  0.95180000  0.375 0.0917282017
H  H65  1  0.39030000  0.92420000  0.45280000  0.375 0.0952809645
H  H66  1  0.60970000  0.07580000  0.45280000  0.375 0.0952809645
H  H67  1  0.57580000  0.89030000  0.45280000  0.375 0.0952809645
H  H68  1  0.42420000  0.10970000  0.45280000  0.375 0.0952809645
H  H69  1  0.10970000  0.42420000  0.04720000  0.375 0.0952809645
H  H70  1  0.89030000  0.57580000  0.04720000  0.375 0.0952809645
H  H71  1  0.92420000  0.39030000  0.04720000  0.375 0.0952809645
H  H72  1  0.07580000  0.60970000  0.04720000  0.375 0.0917282017
H  H73  1  0.10970000  0.57580000  0.54720000  0.375 0.0952809645
H  H74  1  0.89030000  0.42420000  0.54720000  0.375 0.0952809645
H  H75  1  0.92420000  0.60970000  0.54720000  0.375 0.0952809645
H  H76  1  0.07580000  0.39030000  0.54720000  0.375 0.0952809645
H  H77  1  0.39030000  0.07580000  0.95280000  0.375 0.0952809645
H  H78  1  0.60970000  0.92420000  0.95280000  0.375 0.0952809645
H  H79  1  0.57580000  0.10970000  0.95280000  0.375 0.0952809645
H  H80  1  0.42420000  0.89030000  0.95280000  0.375 0.0952809645
H  H81  1  0.36750000  0.97340000  0.06330000  0.375 0.0917282017
H  H82  1  0.63250000  0.02660000  0.06330000  0.375 0.0917282017
H  H83  1  0.52660000  0.86750000  0.06330000  0.375 0.0917282017
H  H84  1  0.47340000  0.13250000  0.06330000  0.375 0.0917282017
H  H85  1  0.13250000  0.47340000  0.43670000  0.375 0.0917282017
H  H86  1  0.86750000  0.52660000  0.43670000  0.375 0.0917282017
H  H87  1  0.97340000  0.36750000  0.43670000  0.375 0.0917282017
H  H88  1  0.02660000  0.63250000  0.43670000  0.375 0.0917282017
H  H89  1  0.13250000  0.52660000  0.93670000  0.375 0.0917282017
H  H90  1  0.86750000  0.47340000  0.93670000  0.375 0.0917282017
H  H91  1  0.97340000  0.63250000  0.93670000  0.375 0.0917282017
H  H92  1  0.02660000  0.36750000  0.93670000  0.375 0.0917282017
H  H93  1  0.36750000  0.02660000  0.56330000  0.375 0.0917282017
H  H94  1  0.63250000  0.97340000  0.56330000  0.375 0.0917282017
H  H95  1  0.52660000  0.13250000  0.56330000  0.375 0.0917282017
H  H96  1  0.47340000  0.86750000  0.56330000  0.375 0.0917282017
H  H97  1  0.42820000  0.88530000  0.06460000  0.375 0.0917282017
H  H98  1  0.57180000  0.11470000  0.06460000  0.375 0.0917282017
H  H99  1  0.61470000  0.92820000  0.06460000  0.375 0.0917282017
H  H100  1  0.38530000  0.07180000  0.06460000  0.375 0.0917282017
H  H101  1  0.07180000  0.38530000  0.43540000  0.375 0.0917282017
H  H102  1  0.92820000  0.61470000  0.43540000  0.375 0.0917282017
H  H103  1  0.88530000  0.42820000  0.43540000  0.375 0.0917282017
H  H104  1  0.11470000  0.57180000  0.43540000  0.375 0.0917282017
H  H105  1  0.07180000  0.61470000  0.93540000  0.375 0.0917282017
H  H106  1  0.92820000  0.38530000  0.93540000  0.375 0.0917282017
H  H107  1  0.88530000  0.57180000  0.93540000  0.375 0.0917282017
H  H108  1  0.11470000  0.42820000  0.93540000  0.375 0.0917282017
H  H109  1  0.42820000  0.11470000  0.56460000  0.375 0.0917282017
H  H110  1  0.57180000  0.88530000  0.56460000  0.375 0.0917282017
H  H111  1  0.61470000  0.07180000  0.56460000  0.375 0.0917282017
H  H112  1  0.38530000  0.92820000  0.56460000  0.375 0.0917282017
H  H113  1  0.38760000  0.07140000  0.06680000  0.375 0.0917282017
H  H114  1  0.61240000  0.92860000  0.06680000  0.375 0.0917282017
H  H115  1  0.42860000  0.88760000  0.06680000  0.375 0.0917282017
H  H116  1  0.57140000  0.11240000  0.06680000  0.375 0.0917282017
H  H117  1  0.11240000  0.57140000  0.43320000  0.375 0.0917282017
H  H118  1  0.88760000  0.42860000  0.43320000  0.375 0.0917282017
H  H119  1  0.07140000  0.38760000  0.43320000  0.375 0.0917282017
H  H120  1  0.92860000  0.61240000  0.43320000  0.375 0.0917282017
H  H121  1  0.11240000  0.42860000  0.93320000  0.375 0.0917282017
H  H122  1  0.88760000  0.57140000  0.93320000  0.375 0.0917282017
H  H123  1  0.07140000  0.61240000  0.93320000  0.375 0.0917282017
H  H124  1  0.92860000  0.38760000  0.93320000  0.375 0.0917282017
H  H125  1  0.38760000  0.92860000  0.56680000  0.375 0.0917282017
H  H126  1  0.61240000  0.07140000  0.56680000  0.375 0.0917282017
H  H127  1  0.42860000  0.11240000  0.56680000  0.375 0.0917282017
H  H128  1  0.57140000  0.88760000  0.56680000  0.375 0.0917282017
H  H129  1  0.37160000  0.96560000  0.06490000  0.375 0.0917282017
H  H130  1  0.62840000  0.03440000  0.06490000  0.375 0.0917282017
H  H131  1  0.53440000  0.87160000  0.06490000  0.375 0.0917282017
H  H132  1  0.46560000  0.12840000  0.06490000  0.375 0.0917282017
H  H133  1  0.12840000  0.46560000  0.43510000  0.375 0.0917282017
H  H134  1  0.87160000  0.53440000  0.43510000  0.375 0.0917282017
H  H135  1  0.96560000  0.37160000  0.43510000  0.375 0.0917282017
H  H136  1  0.03440000  0.62840000  0.43510000  0.375 0.0917282017
H  H137  1  0.12840000  0.53440000  0.93510000  0.375 0.0917282017
H  H138  1  0.87160000  0.46560000  0.93510000  0.375 0.0917282017
H  H139  1  0.96560000  0.62840000  0.93510000  0.375 0.0917282017
H  H140  1  0.03440000  0.37160000  0.93510000  0.375 0.0917282017
H  H141  1  0.37160000  0.03440000  0.56490000  0.375 0.0917282017
H  H142  1  0.62840000  0.96560000  0.56490000  0.375 0.0917282017
H  H143  1  0.53440000  0.12840000  0.56490000  0.375 0.0917282017
H  H144  1  0.46560000  0.87160000  0.56490000  0.375 0.0917282017
C  C1  1  0.34727000  0.92448000  0.25739000  1.0 0.4971426284
C  C2  1  0.65273000  0.07552000  0.25739000  1.0 0.4971426284
C  C3  1  0.57552000  0.84727000  0.25739000  1.0 0.4971426284
C  C4  1  0.42448000  0.15273000  0.25739000  1.0 0.4971426284
C  C5  1  0.15273000  0.42448000  0.24261000  1.0 0.4971426284
C  C6  1  0.84727000  0.57552000  0.24261000  1.0 0.4971426284
C  C7  1  0.92448000  0.34727000  0.24261000  1.0 0.4971426284
C  C8  1  0.07552000  0.65273000  0.24261000  1.0 0.4971426284
C  C9  1  0.15273000  0.57552000  0.74261000  1.0 0.4971426284
C  C10  1  0.84727000  0.42448000  0.74261000  1.0 0.4971426284
C  C11  1  0.92448000  0.65273000  0.74261000  1.0 0.4971426284
C  C12  1  0.07552000  0.34727000  0.74261000  1.0 0.4971426284
C  C13  1  0.34727000  0.07552000  0.75739000  1.0 0.4971426284
C  C14  1  0.65273000  0.92448000  0.75739000  1.0 0.4971426284
C  C15  1  0.57552000  0.15273000  0.75739000  1.0 0.4971426284
C  C16  1  0.42448000  0.84727000  0.75739000  1.0 0.4971426284
C  C17  1  0.26896000  0.86238000  0.25395000  1.0 0.009516344
C  C18  1  0.73104000  0.13762000  0.25395000  1.0 0.009516344
C  C19  1  0.63762000  0.76896000  0.25395000  1.0 0.009516344
C  C20  1  0.36238000  0.23104000  0.25395000  1.0 0.009516344
C  C21  1  0.23104000  0.36238000  0.24605000  1.0 0.009516344
C  C22  1  0.76896000  0.63762000  0.24605000  1.0 0.009516344
C  C23  1  0.86238000  0.26896000  0.24605000  1.0 0.009516344
C  C24  1  0.13762000  0.73104000  0.24605000  1.0 0.009516344
C  C25  1  0.23104000  0.63762000  0.74605000  1.0 0.009516344
C  C26  1  0.76896000  0.36238000  0.74605000  1.0 0.009516344
C  C27  1  0.86238000  0.73104000  0.74605000  1.0 0.009516344
C  C28  1  0.13762000  0.26896000  0.74605000  1.0 0.009516344
C  C29  1  0.26896000  0.13762000  0.75395000  1.0 0.009516344
C  C30  1  0.73104000  0.86238000  0.75395000  1.0 0.009516344
C  C31  1  0.63762000  0.23104000  0.75395000  1.0 0.009516344
C  C32  1  0.36238000  0.76896000  0.75395000  1.0 0.009516344
C  C33  1  0.23180000  0.82770000  0.31446000  1.0 -0.1244303379
C  C34  1  0.76820000  0.17230000  0.31446000  1.0 -0.1244303379
C  C35  1  0.67230000  0.73180000  0.31446000  1.0 -0.1244303379
C  C36  1  0.32770000  0.26820000  0.31446000  1.0 -0.1312126397
C  C37  1  0.26820000  0.32770000  0.18554000  1.0 -0.1312126397
C  C38  1  0.73180000  0.67230000  0.18554000  1.0 -0.1244303379
C  C39  1  0.82770000  0.23180000  0.18554000  1.0 -0.1312126397
C  C40  1  0.17230000  0.76820000  0.18554000  1.0 -0.1244303379
C  C41  1  0.26820000  0.67230000  0.68554000  1.0 -0.1312126397
C  C42  1  0.73180000  0.32770000  0.68554000  1.0 -0.1244303379
C  C43  1  0.82770000  0.76820000  0.68554000  1.0 -0.1244303379
C  C44  1  0.17230000  0.23180000  0.68554000  1.0 -0.1244303379
C  C45  1  0.23180000  0.17230000  0.81446000  1.0 -0.1244303379
C  C46  1  0.76820000  0.82770000  0.81446000  1.0 -0.1244303379
C  C47  1  0.67230000  0.26820000  0.81446000  1.0 -0.1312126397
C  C48  1  0.32770000  0.73180000  0.81446000  1.0 -0.1244303379
C  C49  1  0.23703000  0.83400000  0.18955000  1.0 -0.1312126397
C  C50  1  0.76297000  0.16600000  0.18955000  1.0 -0.1312126397
C  C51  1  0.66600000  0.73703000  0.18955000  1.0 -0.1312126397
C  C52  1  0.33400000  0.26297000  0.18955000  1.0 -0.1312126397
C  C53  1  0.26297000  0.33400000  0.31045000  1.0 -0.1312126397
C  C54  1  0.73703000  0.66600000  0.31045000  1.0 -0.1312126397
C  C55  1  0.83400000  0.23703000  0.31045000  1.0 -0.1312126397
C  C56  1  0.16600000  0.76297000  0.31045000  1.0 -0.1312126397
C  C57  1  0.26297000  0.66600000  0.81045000  1.0 -0.1312126397
C  C58  1  0.73703000  0.33400000  0.81045000  1.0 -0.1312126397
C  C59  1  0.83400000  0.76297000  0.81045000  1.0 -0.1312126397
C  C60  1  0.16600000  0.23703000  0.81045000  1.0 -0.1312126397
C  C61  1  0.23703000  0.16600000  0.68955000  1.0 -0.1312126397
C  C62  1  0.76297000  0.83400000  0.68955000  1.0 -0.1312126397
C  C63  1  0.66600000  0.26297000  0.68955000  1.0 -0.1312126397
C  C64  1  0.33400000  0.73703000  0.68955000  1.0 -0.1312126397
C  C65  1  0.44640000  0.92590000  0.46840000  0.375 -0.0667029423
C  C66  1  0.55360000  0.07410000  0.46840000  0.375 -0.0667029423
C  C67  1  0.57410000  0.94640000  0.46840000  0.375 -0.0667029423
C  C68  1  0.42590000  0.05360000  0.46840000  0.375 -0.0667029423
C  C69  1  0.05360000  0.42590000  0.03160000  0.375 -0.0667029423
C  C70  1  0.94640000  0.57410000  0.03160000  0.375 -0.0667029423
C  C71  1  0.92590000  0.44640000  0.03160000  0.375 -0.0667029423
C  C72  1  0.07410000  0.55360000  0.03160000  0.375 -0.0667029423
C  C73  1  0.05360000  0.57410000  0.53160000  0.375 -0.0667029423
C  C74  1  0.94640000  0.42590000  0.53160000  0.375 -0.0667029423
C  C75  1  0.92590000  0.55360000  0.53160000  0.375 -0.0667029423
C  C76  1  0.07410000  0.44640000  0.53160000  0.375 -0.0667029423
C  C77  1  0.44640000  0.07410000  0.96840000  0.375 -0.0667029423
C  C78  1  0.55360000  0.92590000  0.96840000  0.375 -0.0667029423
C  C79  1  0.57410000  0.05360000  0.96840000  0.375 -0.0667029423
C  C80  1  0.42590000  0.94640000  0.96840000  0.375 -0.0667029423
C  C81  1  0.41130000  0.98300000  0.46890000  0.375 -0.0589962282
C  C82  1  0.58870000  0.01700000  0.46890000  0.375 -0.0589962282
C  C83  1  0.51700000  0.91130000  0.46890000  0.375 -0.0589962282
C  C84  1  0.48300000  0.08870000  0.46890000  0.375 -0.0589962282
C  C85  1  0.08870000  0.48300000  0.03110000  0.375 -0.0589962282
C  C86  1  0.91130000  0.51700000  0.03110000  0.375 -0.0589962282
C  C87  1  0.98300000  0.41130000  0.03110000  0.375 -0.0589962282
C  C88  1  0.01700000  0.58870000  0.03110000  0.375 -0.0589962282
C  C89  1  0.08870000  0.51700000  0.53110000  0.375 -0.0589962282
C  C90  1  0.91130000  0.48300000  0.53110000  0.375 -0.0589962282
C  C91  1  0.98300000  0.58870000  0.53110000  0.375 -0.0589962282
C  C92  1  0.01700000  0.41130000  0.53110000  0.375 -0.0589962282
C  C93  1  0.41130000  0.01700000  0.96890000  0.375 -0.0589962282
C  C94  1  0.58870000  0.98300000  0.96890000  0.375 -0.0589962282
C  C95  1  0.51700000  0.08870000  0.96890000  0.375 -0.0589962282
C  C96  1  0.48300000  0.91130000  0.96890000  0.375 -0.0589962282
C  C97  1  0.42460000  0.94740000  0.04700000  0.375 -0.0800409349
C  C98  1  0.57540000  0.05260000  0.04700000  0.375 -0.0800409349
C  C99  1  0.55260000  0.92460000  0.04700000  0.375 -0.0800409349
C  C100  1  0.44740000  0.07540000  0.04700000  0.375 -0.0800409349
C  C101  1  0.07540000  0.44740000  0.45300000  0.375 -0.0800409349
C  C102  1  0.92460000  0.55260000  0.45300000  0.375 -0.0800409349
C  C103  1  0.94740000  0.42460000  0.45300000  0.375 -0.0800409349
C  C104  1  0.05260000  0.57540000  0.45300000  0.375 -0.0800409349
C  C105  1  0.07540000  0.55260000  0.95300000  0.375 -0.0800409349
C  C106  1  0.92460000  0.44740000  0.95300000  0.375 -0.0800409349
C  C107  1  0.94740000  0.57540000  0.95300000  0.375 -0.0800409349
C  C108  1  0.05260000  0.42460000  0.95300000  0.375 -0.0800409349
C  C109  1  0.42460000  0.05260000  0.54700000  0.375 -0.0800409349
C  C110  1  0.57540000  0.94740000  0.54700000  0.375 -0.0800409349
C  C111  1  0.55260000  0.07540000  0.54700000  0.375 -0.0800409349
C  C112  1  0.44740000  0.92460000  0.54700000  0.375 -0.0800409349
C  C113  1  0.41130000  0.01400000  0.04860000  0.375 -0.0800409349
C  C114  1  0.58870000  0.98600000  0.04860000  0.375 -0.0800409349
C  C115  1  0.48600000  0.91130000  0.04860000  0.375 -0.0800409349
C  C116  1  0.51400000  0.08870000  0.04860000  0.375 -0.0800409349
C  C117  1  0.08870000  0.51400000  0.45140000  0.375 -0.0800409349
C  C118  1  0.91130000  0.48600000  0.45140000  0.375 -0.0800409349
C  C119  1  0.01400000  0.41130000  0.45140000  0.375 -0.0800409349
C  C120  1  0.98600000  0.58870000  0.45140000  0.375 -0.0800409349
C  C121  1  0.08870000  0.48600000  0.95140000  0.375 -0.0800409349
C  C122  1  0.91130000  0.51400000  0.95140000  0.375 -0.0800409349
C  C123  1  0.01400000  0.58870000  0.95140000  0.375 -0.0800409349
C  C124  1  0.98600000  0.41130000  0.95140000  0.375 -0.0800409349
C  C125  1  0.41130000  0.98600000  0.54860000  0.375 -0.0800409349
C  C126  1  0.58870000  0.01400000  0.54860000  0.375 -0.0800409349
C  C127  1  0.48600000  0.08870000  0.54860000  0.375 -0.0800409349
C  C128  1  0.51400000  0.91130000  0.54860000  0.375 -0.0800409349
N  N1  1  0.50000000  0.00000000  0.44150000  1.0 -0.1410938272
N  N2  1  0.00000000  0.50000000  0.05850000  1.0 -0.1410938272
N  N3  1  0.00000000  0.50000000  0.55850000  1.0 -0.1410938272
N  N4  1  0.50000000  0.00000000  0.94150000  1.0 -0.1410938272
N  N5  1  0.50000000  0.00000000  0.07520000  1.0 -0.1312126397
N  N6  1  0.00000000  0.50000000  0.42480000  1.0 -0.1312126397
N  N7  1  0.00000000  0.50000000  0.92480000  1.0 -0.1312126397
N  N8  1  0.50000000  0.00000000  0.57520000  1.0 -0.1312126397
O  O1  1  0.38309000  0.93466000  0.31601000  1.0 -0.5593767235
O  O2  1  0.61691000  0.06534000  0.31601000  1.0 -0.5593767235
O  O3  1  0.56534000  0.88309000  0.31601000  1.0 -0.5593767235
O  O4  1  0.43466000  0.11691000  0.31601000  1.0 -0.5593767235
O  O5  1  0.11691000  0.43466000  0.18399000  1.0 -0.5593767235
O  O6  1  0.88309000  0.56534000  0.18399000  1.0 -0.5593767235
O  O7  1  0.93466000  0.38309000  0.18399000  1.0 -0.5593767235
O  O8  1  0.06534000  0.61691000  0.18399000  1.0 -0.5593767235
O  O9  1  0.11691000  0.56534000  0.68399000  1.0 -0.5593767235
O  O10  1  0.88309000  0.43466000  0.68399000  1.0 -0.5593767235
O  O11  1  0.93466000  0.61691000  0.68399000  1.0 -0.5593767235
O  O12  1  0.06534000  0.38309000  0.68399000  1.0 -0.5593767235
O  O13  1  0.38309000  0.06534000  0.81601000  1.0 -0.5593767235
O  O14  1  0.61691000  0.93466000  0.81601000  1.0 -0.5593767235
O  O15  1  0.56534000  0.11691000  0.81601000  1.0 -0.5593767235
O  O16  1  0.43466000  0.88309000  0.81601000  1.0 -0.5593767235
O  O17  1  0.37249000  0.95994000  0.20157000  1.0 -0.5703835146
O  O18  1  0.62751000  0.04006000  0.20157000  1.0 -0.5703835146
O  O19  1  0.54006000  0.87249000  0.20157000  1.0 -0.5703835146
O  O20  1  0.45994000  0.12751000  0.20157000  1.0 -0.5703835146
O  O21  1  0.12751000  0.45994000  0.29843000  1.0 -0.5703835146
O  O22  1  0.87249000  0.54006000  0.29843000  1.0 -0.5703835146
O  O23  1  0.95994000  0.37249000  0.29843000  1.0 -0.5703835146
O  O24  1  0.04006000  0.62751000  0.29843000  1.0 -0.5703835146
O  O25  1  0.12751000  0.54006000  0.79843000  1.0 -0.5703835146
O  O26  1  0.87249000  0.45994000  0.79843000  1.0 -0.5703835146
O  O27  1  0.95994000  0.62751000  0.79843000  1.0 -0.5703835146
O  O28  1  0.04006000  0.37249000  0.79843000  1.0 -0.5703835146
O  O29  1  0.37249000  0.04006000  0.70157000  1.0 -0.5703835146
O  O30  1  0.62751000  0.95994000  0.70157000  1.0 -0.5703835146
O  O31  1  0.54006000  0.12751000  0.70157000  1.0 -0.5703835146
O  O32  1  0.45994000  0.87249000  0.70157000  1.0 -0.5703835146
