# DDEC6 charges by PACMAN v1.1 (https://github.com/mtap-research/PACMAN-charge/)
data_c7cc06125k5_2_ASR_pacman
_symmetry_space_group_name_H-M   'P 1'
_cell_length_a   19.39380000
_cell_length_b   19.39380000
_cell_length_c   14.14960000
_cell_angle_alpha   90.00000000
_cell_angle_beta   90.00000000
_cell_angle_gamma   90.00000000
_symmetry_Int_Tables_number   1
_chemical_formula_structural   ZnH2C8S(NO2)2
_chemical_formula_sum   'Zn16 H32 C128 S16 N32 O64'
_cell_volume   5321.94017213
_cell_formula_units_Z   16
loop_
 _symmetry_equiv_pos_site_id
 _symmetry_equiv_pos_as_xyz
  1  'x, y, z'
loop_
 _atom_site_type_symbol
 _atom_site_label
 _atom_site_symmetry_multiplicity
 _atom_site_fract_x
 _atom_site_fract_y
 _atom_site_fract_z
 _atom_site_occupancy
 _atom_site_charge
Zn  Zn1  1  0.49317000  0.03626000  0.64236000  1.0 0.9010376078
Zn  Zn2  1  0.50683000  0.96374000  0.14236000  1.0 0.9010376078
Zn  Zn3  1  0.53626000  0.00683000  0.39236000  1.0 0.9010376078
Zn  Zn4  1  0.46374000  0.99317000  0.89236000  1.0 0.9010376078
Zn  Zn5  1  0.99317000  0.46374000  0.10764000  1.0 0.9010376078
Zn  Zn6  1  0.00683000  0.53626000  0.60764000  1.0 0.9010376078
Zn  Zn7  1  0.03626000  0.49317000  0.35764000  1.0 0.9010376078
Zn  Zn8  1  0.96374000  0.50683000  0.85764000  1.0 0.9010376078
Zn  Zn9  1  0.53557000  0.46443000  0.25000000  1.0 0.7840640512
Zn  Zn10  1  0.46443000  0.53557000  0.75000000  1.0 0.7840640512
Zn  Zn11  1  0.96443000  0.96443000  0.00000000  1.0 0.785739061
Zn  Zn12  1  0.03557000  0.03557000  0.50000000  1.0 0.7840640512
Zn  Zn13  1  0.49226000  0.49226000  0.50000000  1.0 0.8038557735
Zn  Zn14  1  0.50774000  0.50774000  0.00000000  1.0 0.8038557735
Zn  Zn15  1  0.99226000  0.00774000  0.25000000  1.0 0.8038557735
Zn  Zn16  1  0.00774000  0.99226000  0.75000000  1.0 0.8038557735
H  H1  1  0.48650000  0.85160000  0.56480000  1.0 0.1331968135
H  H2  1  0.51350000  0.14840000  0.06480000  1.0 0.1331968135
H  H3  1  0.35160000  0.01350000  0.31480000  1.0 0.1331968135
H  H4  1  0.64840000  0.98650000  0.81480000  1.0 0.1331968135
H  H5  1  0.98650000  0.64840000  0.18520000  1.0 0.1331968135
H  H6  1  0.01350000  0.35160000  0.68520000  1.0 0.1331968135
H  H7  1  0.85160000  0.48650000  0.43520000  1.0 0.1331968135
H  H8  1  0.14840000  0.51350000  0.93520000  1.0 0.1331968135
H  H9  1  0.48070000  0.74360000  0.49310000  1.0 0.1023785168
H  H10  1  0.51930000  0.25640000  0.99310000  1.0 0.1023785168
H  H11  1  0.24360000  0.01930000  0.24310000  1.0 0.1023785168
H  H12  1  0.75640000  0.98070000  0.74310000  1.0 0.1023785168
H  H13  1  0.98070000  0.75640000  0.25690000  1.0 0.1023785168
H  H14  1  0.01930000  0.24360000  0.75690000  1.0 0.1023785168
H  H15  1  0.74360000  0.48070000  0.50690000  1.0 0.1023785168
H  H16  1  0.25640000  0.51930000  0.00690000  1.0 0.1023785168
H  H17  1  0.35010000  0.43980000  0.18030000  1.0 0.1023785168
H  H18  1  0.64990000  0.56020000  0.68030000  1.0 0.1023785168
H  H19  1  0.93980000  0.14990000  0.93030000  1.0 0.1023785168
H  H20  1  0.06020000  0.85010000  0.43030000  1.0 0.1023785168
H  H21  1  0.85010000  0.06020000  0.56970000  1.0 0.1023785168
H  H22  1  0.14990000  0.93980000  0.06970000  1.0 0.1023785168
H  H23  1  0.43980000  0.35010000  0.81970000  1.0 0.1023785168
H  H24  1  0.56020000  0.64990000  0.31970000  1.0 0.1023785168
H  H25  1  0.24190000  0.42970000  0.11320000  1.0 0.1023785168
H  H26  1  0.75810000  0.57030000  0.61320000  1.0 0.1023785168
H  H27  1  0.92970000  0.25810000  0.86320000  1.0 0.1023785168
H  H28  1  0.07030000  0.74190000  0.36320000  1.0 0.1023785168
H  H29  1  0.74190000  0.07030000  0.63680000  1.0 0.1107164976
H  H30  1  0.25810000  0.92970000  0.13680000  1.0 0.1023785168
H  H31  1  0.42970000  0.24190000  0.88680000  1.0 0.1023785168
H  H32  1  0.57030000  0.75810000  0.38680000  1.0 0.1107164976
C  C1  1  0.48130000  0.89312000  0.73670000  1.0 0.5976191727
C  C2  1  0.51870000  0.10688000  0.23670000  1.0 0.5976191727
C  C3  1  0.39312000  0.01870000  0.48670000  1.0 0.5976191727
C  C4  1  0.60688000  0.98130000  0.98670000  1.0 0.5976191727
C  C5  1  0.98130000  0.60688000  0.01330000  1.0 0.5976191727
C  C6  1  0.01870000  0.39312000  0.51330000  1.0 0.5976191727
C  C7  1  0.89312000  0.48130000  0.26330000  1.0 0.5976191727
C  C8  1  0.10688000  0.51870000  0.76330000  1.0 0.5976191727
C  C9  1  0.48000000  0.82110000  0.69770000  1.0 -0.0898817592
C  C10  1  0.52000000  0.17890000  0.19770000  1.0 -0.0898817592
C  C11  1  0.32110000  0.02000000  0.44770000  1.0 -0.0898817592
C  C12  1  0.67890000  0.98000000  0.94770000  1.0 -0.0898817592
C  C13  1  0.98000000  0.67890000  0.05230000  1.0 -0.0898817592
C  C14  1  0.02000000  0.32110000  0.55230000  1.0 -0.0898817592
C  C15  1  0.82110000  0.48000000  0.30230000  1.0 -0.0898817592
C  C16  1  0.17890000  0.52000000  0.80230000  1.0 -0.0898817592
C  C17  1  0.48310000  0.81270000  0.60290000  1.0 -0.0840707424
C  C18  1  0.51690000  0.18730000  0.10290000  1.0 -0.0840707424
C  C19  1  0.31270000  0.01690000  0.35290000  1.0 -0.0840707424
C  C20  1  0.68730000  0.98310000  0.85290000  1.0 -0.0898817592
C  C21  1  0.98310000  0.68730000  0.14710000  1.0 -0.0840707424
C  C22  1  0.01690000  0.31270000  0.64710000  1.0 -0.0840707424
C  C23  1  0.81270000  0.48310000  0.39710000  1.0 -0.0840707424
C  C24  1  0.18730000  0.51690000  0.89710000  1.0 -0.0840707424
C  C25  1  0.48150000  0.74590000  0.55880000  1.0 -0.1260127905
C  C26  1  0.51850000  0.25410000  0.05880000  1.0 -0.1218872883
C  C27  1  0.24590000  0.01850000  0.30880000  1.0 -0.1218872883
C  C28  1  0.75410000  0.98150000  0.80880000  1.0 -0.1218872883
C  C29  1  0.98150000  0.75410000  0.19120000  1.0 -0.1218872883
C  C30  1  0.01850000  0.24590000  0.69120000  1.0 -0.1260127905
C  C31  1  0.74590000  0.48150000  0.44120000  1.0 -0.1218872883
C  C32  1  0.25410000  0.51850000  0.94120000  1.0 -0.1260127905
C  C33  1  0.48090000  0.68560000  0.60920000  1.0 -0.1421401161
C  C34  1  0.51910000  0.31440000  0.10920000  1.0 -0.1421401161
C  C35  1  0.18560000  0.01910000  0.35920000  1.0 -0.1421401161
C  C36  1  0.81440000  0.98090000  0.85920000  1.0 -0.1421401161
C  C37  1  0.98090000  0.81440000  0.14080000  1.0 -0.1421401161
C  C38  1  0.01910000  0.18560000  0.64080000  1.0 -0.1421401161
C  C39  1  0.68560000  0.48090000  0.39080000  1.0 -0.1421401161
C  C40  1  0.31440000  0.51910000  0.89080000  1.0 -0.1421401161
C  C41  1  0.47350000  0.69352000  0.70770000  1.0 0.1107164976
C  C42  1  0.52650000  0.30648000  0.20770000  1.0 0.1107164976
C  C43  1  0.19352000  0.02650000  0.45770000  1.0 0.1107164976
C  C44  1  0.80648000  0.97350000  0.95770000  1.0 0.1107164976
C  C45  1  0.97350000  0.80648000  0.04230000  1.0 0.1107164976
C  C46  1  0.02650000  0.19352000  0.54230000  1.0 0.1107164976
C  C47  1  0.69352000  0.47350000  0.29230000  1.0 0.1107164976
C  C48  1  0.30648000  0.52650000  0.79230000  1.0 0.1107164976
C  C49  1  0.47190000  0.76095000  0.75230000  1.0 0.1511193603
C  C50  1  0.52810000  0.23905000  0.25230000  1.0 0.1511193603
C  C51  1  0.26095000  0.02810000  0.50230000  1.0 0.1511193603
C  C52  1  0.73905000  0.97190000  0.00230000  1.0 0.1511193603
C  C53  1  0.97190000  0.73905000  0.99770000  1.0 0.1511193603
C  C54  1  0.02810000  0.26095000  0.49770000  1.0 0.1511193603
C  C55  1  0.76095000  0.47190000  0.24770000  1.0 0.1511193603
C  C56  1  0.23905000  0.52810000  0.74770000  1.0 0.1511193603
C  C57  1  0.48500000  0.61830000  0.55870000  1.0 0.4523786572
C  C58  1  0.51500000  0.38170000  0.05870000  1.0 0.4523786572
C  C59  1  0.11830000  0.01500000  0.30870000  1.0 0.4523786572
C  C60  1  0.88170000  0.98500000  0.80870000  1.0 0.4523786572
C  C61  1  0.98500000  0.88170000  0.19130000  1.0 0.4523786572
C  C62  1  0.01500000  0.11830000  0.69130000  1.0 0.4523786572
C  C63  1  0.61830000  0.48500000  0.44130000  1.0 0.4523786572
C  C64  1  0.38170000  0.51500000  0.94130000  1.0 0.4523786572
C  C65  1  0.39350000  0.47610000  0.34560000  1.0 0.5151072112
C  C66  1  0.60650000  0.52390000  0.84560000  1.0 0.5151072112
C  C67  1  0.97610000  0.10650000  0.09560000  1.0 0.5143330661
C  C68  1  0.02390000  0.89350000  0.59560000  1.0 0.5151072112
C  C69  1  0.89350000  0.02390000  0.40440000  1.0 0.5143330661
C  C70  1  0.10650000  0.97610000  0.90440000  1.0 0.5151072112
C  C71  1  0.47610000  0.39350000  0.65440000  1.0 0.5143330661
C  C72  1  0.52390000  0.60650000  0.15440000  1.0 0.5151072112
C  C73  1  0.32100000  0.47310000  0.30840000  1.0 -0.0898817592
C  C74  1  0.67900000  0.52690000  0.80840000  1.0 -0.0898817592
C  C75  1  0.97310000  0.17900000  0.05840000  1.0 -0.0898817592
C  C76  1  0.02690000  0.82100000  0.55840000  1.0 -0.0898817592
C  C77  1  0.82100000  0.02690000  0.44160000  1.0 -0.0898817592
C  C78  1  0.17900000  0.97310000  0.94160000  1.0 -0.0898817592
C  C79  1  0.47310000  0.32100000  0.69160000  1.0 -0.0898817592
C  C80  1  0.52690000  0.67900000  0.19160000  1.0 -0.0898817592
C  C81  1  0.31160000  0.45150000  0.21610000  1.0 -0.1218872883
C  C82  1  0.68840000  0.54850000  0.71610000  1.0 -0.1218872883
C  C83  1  0.95150000  0.18840000  0.96610000  1.0 -0.1218872883
C  C84  1  0.04850000  0.81160000  0.46610000  1.0 -0.1218872883
C  C85  1  0.81160000  0.04850000  0.53390000  1.0 -0.1218872883
C  C86  1  0.18840000  0.95150000  0.03390000  1.0 -0.1218872883
C  C87  1  0.45150000  0.31160000  0.78390000  1.0 -0.1218872883
C  C88  1  0.54850000  0.68840000  0.28390000  1.0 -0.1218872883
C  C89  1  0.24570000  0.44650000  0.17450000  1.0 -0.1218872883
C  C90  1  0.75430000  0.55350000  0.67450000  1.0 -0.1218872883
C  C91  1  0.94650000  0.25430000  0.92450000  1.0 -0.1218872883
C  C92  1  0.05350000  0.74570000  0.42450000  1.0 -0.1218872883
C  C93  1  0.74570000  0.05350000  0.57550000  1.0 -0.1218872883
C  C94  1  0.25430000  0.94650000  0.07550000  1.0 -0.1218872883
C  C95  1  0.44650000  0.24570000  0.82550000  1.0 -0.1218872883
C  C96  1  0.55350000  0.75430000  0.32550000  1.0 -0.1218872883
C  C97  1  0.18660000  0.46580000  0.22210000  1.0 -0.0898817592
C  C98  1  0.81340000  0.53420000  0.72210000  1.0 -0.0898817592
C  C99  1  0.96580000  0.31340000  0.97210000  1.0 -0.0898817592
C  C100  1  0.03420000  0.68660000  0.47210000  1.0 -0.0898817592
C  C101  1  0.68660000  0.03420000  0.52790000  1.0 -0.0898817592
C  C102  1  0.31340000  0.96580000  0.02790000  1.0 -0.0898817592
C  C103  1  0.46580000  0.18660000  0.77790000  1.0 -0.0898817592
C  C104  1  0.53420000  0.81340000  0.27790000  1.0 -0.0898817592
C  C105  1  0.19435000  0.48400000  0.31830000  1.0 0.1331968135
C  C106  1  0.80565000  0.51600000  0.81830000  1.0 0.1331968135
C  C107  1  0.98400000  0.30565000  0.06830000  1.0 0.1331968135
C  C108  1  0.01600000  0.69435000  0.56830000  1.0 0.1331968135
C  C109  1  0.69435000  0.01600000  0.43170000  1.0 0.1331968135
C  C110  1  0.30565000  0.98400000  0.93170000  1.0 0.1331968135
C  C111  1  0.48400000  0.19435000  0.68170000  1.0 0.1331968135
C  C112  1  0.51600000  0.80565000  0.18170000  1.0 0.1331968135
C  C113  1  0.26120000  0.48790000  0.36120000  1.0 0.1550131855
C  C114  1  0.73880000  0.51210000  0.86120000  1.0 0.1511193603
C  C115  1  0.98790000  0.23880000  0.11120000  1.0 0.1550131855
C  C116  1  0.01210000  0.76120000  0.61120000  1.0 0.1511193603
C  C117  1  0.76120000  0.01210000  0.38880000  1.0 0.1550131855
C  C118  1  0.23880000  0.98790000  0.88880000  1.0 0.1550131855
C  C119  1  0.48790000  0.26120000  0.63880000  1.0 0.1511193603
C  C120  1  0.51210000  0.73880000  0.13880000  1.0 0.1550131855
C  C121  1  0.11900000  0.46480000  0.17240000  1.0 0.5592212644
C  C122  1  0.88100000  0.53520000  0.67240000  1.0 0.5592212644
C  C123  1  0.96480000  0.38100000  0.92240000  1.0 0.5592212644
C  C124  1  0.03520000  0.61900000  0.42240000  1.0 0.5592212644
C  C125  1  0.61900000  0.03520000  0.57760000  1.0 0.5592212644
C  C126  1  0.38100000  0.96480000  0.07760000  1.0 0.5592212644
C  C127  1  0.46480000  0.11900000  0.82760000  1.0 0.5592212644
C  C128  1  0.53520000  0.88100000  0.32760000  1.0 0.5592212644
S  S1  1  0.42830000  0.68200000  0.86730000  0.42 0.3059251812
S  S2  1  0.57170000  0.31800000  0.36730000  0.42 0.3059251812
S  S3  1  0.18200000  0.07170000  0.61730000  0.42 0.2978993363
S  S4  1  0.81800000  0.92830000  0.11730000  0.42 0.3059251812
S  S5  1  0.92830000  0.81800000  0.88270000  0.42 0.3059251812
S  S6  1  0.07170000  0.18200000  0.38270000  0.42 0.2978993363
S  S7  1  0.68200000  0.42830000  0.13270000  0.42 0.2978993363
S  S8  1  0.31800000  0.57170000  0.63270000  0.42 0.3059251812
S  S9  1  0.17690000  0.49700000  0.48630000  0.42 0.2978993363
S  S10  1  0.82310000  0.50300000  0.98630000  0.42 0.2978993363
S  S11  1  0.99700000  0.32310000  0.23630000  0.42 0.2978993363
S  S12  1  0.00300000  0.67690000  0.73630000  0.42 0.2978993363
S  S13  1  0.67690000  0.00300000  0.26370000  0.42 0.2978993363
S  S14  1  0.32310000  0.99700000  0.76370000  0.42 0.2978993363
S  S15  1  0.49700000  0.17690000  0.51370000  0.42 0.2978993363
S  S16  1  0.50300000  0.82310000  0.01370000  0.42 0.2978993363
S  S17  1  0.17960000  0.52720000  0.47430000  0.58 0.2978993363
S  S18  1  0.82040000  0.47280000  0.97430000  0.58 0.2978993363
S  S19  1  0.02720000  0.32040000  0.22430000  0.58 0.2978993363
S  S20  1  0.97280000  0.67960000  0.72430000  0.58 0.2871250105
S  S21  1  0.67960000  0.97280000  0.27570000  0.58 0.2978993363
S  S22  1  0.32040000  0.02720000  0.77570000  0.58 0.2871250105
S  S23  1  0.52720000  0.17960000  0.52570000  0.58 0.2871250105
S  S24  1  0.47280000  0.82040000  0.02570000  0.58 0.2871250105
S  S25  1  0.47610000  0.67505000  0.87244000  0.58 0.3451763881
S  S26  1  0.52390000  0.32495000  0.37244000  0.58 0.3451763881
S  S27  1  0.17505000  0.02390000  0.62244000  0.58 0.3451763881
S  S28  1  0.82495000  0.97610000  0.12244000  0.58 0.3439965215
S  S29  1  0.97610000  0.82495000  0.87756000  0.58 0.3451763881
S  S30  1  0.02390000  0.17505000  0.37756000  0.58 0.3439965215
S  S31  1  0.67505000  0.47610000  0.12756000  0.58 0.3439965215
S  S32  1  0.32495000  0.52390000  0.62756000  0.58 0.3439965215
N  N1  1  0.46690000  0.75690000  0.84450000  1.0 -0.3313796441
N  N2  1  0.53310000  0.24310000  0.34450000  1.0 -0.3313796441
N  N3  1  0.25690000  0.03310000  0.59450000  1.0 -0.3313796441
N  N4  1  0.74310000  0.96690000  0.09450000  1.0 -0.3313796441
N  N5  1  0.96690000  0.74310000  0.90550000  1.0 -0.3313796441
N  N6  1  0.03310000  0.25690000  0.40550000  1.0 -0.3313796441
N  N7  1  0.75690000  0.46690000  0.15550000  1.0 -0.3313796441
N  N8  1  0.24310000  0.53310000  0.65550000  1.0 -0.3313796441
N  N9  1  0.46490000  0.64292000  0.76920000  1.0 -0.3194297436
N  N10  1  0.53510000  0.35708000  0.26920000  1.0 -0.3194297436
N  N11  1  0.14292000  0.03510000  0.51920000  1.0 -0.3194297436
N  N12  1  0.85708000  0.96490000  0.01920000  1.0 -0.3194297436
N  N13  1  0.96490000  0.85708000  0.98080000  1.0 -0.3194297436
N  N14  1  0.03510000  0.14292000  0.48080000  1.0 -0.3194297436
N  N15  1  0.64292000  0.46490000  0.23080000  1.0 -0.3194297436
N  N16  1  0.35708000  0.53510000  0.73080000  1.0 -0.3194297436
N  N17  1  0.25856000  0.50580000  0.45260000  1.0 -0.3742564055
N  N18  1  0.74144000  0.49420000  0.95260000  1.0 -0.3763176533
N  N19  1  0.00580000  0.24144000  0.20260000  1.0 -0.3742564055
N  N20  1  0.99420000  0.75856000  0.70260000  1.0 -0.3742564055
N  N21  1  0.75856000  0.99420000  0.29740000  1.0 -0.3742564055
N  N22  1  0.24144000  0.00580000  0.79740000  1.0 -0.3742564055
N  N23  1  0.50580000  0.25856000  0.54740000  1.0 -0.3742564055
N  N24  1  0.49420000  0.74144000  0.04740000  1.0 -0.3742564055
N  N25  1  0.14398000  0.49890000  0.37850000  1.0 -0.3404553863
N  N26  1  0.85602000  0.50110000  0.87850000  1.0 -0.3404553863
N  N27  1  0.99890000  0.35602000  0.12850000  1.0 -0.3404553863
N  N28  1  0.00110000  0.64398000  0.62850000  1.0 -0.3404553863
N  N29  1  0.64398000  0.00110000  0.37150000  1.0 -0.3404553863
N  N30  1  0.35602000  0.99890000  0.87150000  1.0 -0.3404553863
N  N31  1  0.49890000  0.14398000  0.62150000  1.0 -0.3404553863
N  N32  1  0.50110000  0.85602000  0.12150000  1.0 -0.3404553863
O  O1  1  0.49380000  0.93797000  0.67820000  1.0 -0.5190765294
O  O2  1  0.50620000  0.06203000  0.17820000  1.0 -0.5190765294
O  O3  1  0.43797000  0.00620000  0.42820000  1.0 -0.5190765294
O  O4  1  0.56203000  0.99380000  0.92820000  1.0 -0.5190765294
O  O5  1  0.99380000  0.56203000  0.07180000  1.0 -0.5190765294
O  O6  1  0.00620000  0.43797000  0.57180000  1.0 -0.5190765294
O  O7  1  0.93797000  0.49380000  0.32180000  1.0 -0.5190765294
O  O8  1  0.06203000  0.50620000  0.82180000  1.0 -0.5190765294
O  O9  1  0.46940000  0.90326000  0.82090000  1.0 -0.5465892288
O  O10  1  0.53060000  0.09674000  0.32090000  1.0 -0.5465892288
O  O11  1  0.40326000  0.03060000  0.57090000  1.0 -0.5465892288
O  O12  1  0.59674000  0.96940000  0.07090000  1.0 -0.5465892288
O  O13  1  0.96940000  0.59674000  0.92910000  1.0 -0.5465892288
O  O14  1  0.03060000  0.40326000  0.42910000  1.0 -0.5465892288
O  O15  1  0.90326000  0.46940000  0.17910000  1.0 -0.5465892288
O  O16  1  0.09674000  0.53060000  0.67910000  1.0 -0.5465892288
O  O17  1  0.47709000  0.56318000  0.60501000  1.0 -0.6078917901
O  O18  1  0.52291000  0.43682000  0.10501000  1.0 -0.6078917901
O  O19  1  0.06318000  0.02291000  0.35501000  1.0 -0.6078917901
O  O20  1  0.93682000  0.97709000  0.85501000  1.0 -0.6078917901
O  O21  1  0.97709000  0.93682000  0.14499000  1.0 -0.6078917901
O  O22  1  0.02291000  0.06318000  0.64499000  1.0 -0.6078917901
O  O23  1  0.56318000  0.47709000  0.39499000  1.0 -0.6078917901
O  O24  1  0.43682000  0.52291000  0.89499000  1.0 -0.6078917901
O  O25  1  0.40356000  0.48710000  0.42950000  1.0 -0.5030167731
O  O26  1  0.59644000  0.51290000  0.92950000  1.0 -0.5030167731
O  O27  1  0.98710000  0.09644000  0.17950000  1.0 -0.5030167731
O  O28  1  0.01290000  0.90356000  0.67950000  1.0 -0.5030167731
O  O29  1  0.90356000  0.01290000  0.32050000  1.0 -0.5030167731
O  O30  1  0.09644000  0.98710000  0.82050000  1.0 -0.5030167731
O  O31  1  0.48710000  0.40356000  0.57050000  1.0 -0.5030167731
O  O32  1  0.51290000  0.59644000  0.07050000  1.0 -0.5030167731
O  O33  1  0.11579000  0.45780000  0.08680000  1.0 -0.4819404478
O  O34  1  0.88421000  0.54220000  0.58680000  1.0 -0.4819404478
O  O35  1  0.95780000  0.38421000  0.83680000  1.0 -0.4819404478
O  O36  1  0.04220000  0.61579000  0.33680000  1.0 -0.4819404478
O  O37  1  0.61579000  0.04220000  0.66320000  1.0 -0.4819404478
O  O38  1  0.38421000  0.95780000  0.16320000  1.0 -0.4819404478
O  O39  1  0.45780000  0.11579000  0.91320000  1.0 -0.4819404478
O  O40  1  0.54220000  0.88421000  0.41320000  1.0 -0.4819404478
O  O41  1  0.06289000  0.47211000  0.22108000  1.0 -0.6078917901
O  O42  1  0.93711000  0.52789000  0.72108000  1.0 -0.6078917901
O  O43  1  0.97211000  0.43711000  0.97108000  1.0 -0.6078917901
O  O44  1  0.02789000  0.56289000  0.47108000  1.0 -0.6078917901
O  O45  1  0.56289000  0.02789000  0.52892000  1.0 -0.6078917901
O  O46  1  0.43711000  0.97211000  0.02892000  1.0 -0.6078917901
O  O47  1  0.47211000  0.06289000  0.77892000  1.0 -0.6078917901
O  O48  1  0.52789000  0.93711000  0.27892000  1.0 -0.6078917901
O  O49  1  0.48140000  0.61810000  0.46630000  0.42 -0.0898817592
O  O50  1  0.51860000  0.38190000  0.96630000  0.42 -0.0898817592
O  O51  1  0.11810000  0.01860000  0.21630000  0.42 -0.0840707424
O  O52  1  0.88190000  0.98140000  0.71630000  0.42 -0.0898817592
O  O53  1  0.98140000  0.88190000  0.28370000  0.42 -0.0840707424
O  O54  1  0.01860000  0.11810000  0.78370000  0.42 -0.0840707424
O  O55  1  0.61810000  0.48140000  0.53370000  0.42 -0.0898817592
O  O56  1  0.38190000  0.51860000  0.03370000  0.42 -0.0898817592
O  O57  1  0.43670000  0.44120000  0.29880000  0.42 -0.2342192365
O  O58  1  0.56330000  0.55880000  0.79880000  0.42 -0.2342192365
O  O59  1  0.94120000  0.06330000  0.04880000  0.42 -0.2342192365
O  O60  1  0.05880000  0.93670000  0.54880000  0.42 -0.237433337
O  O61  1  0.93670000  0.05880000  0.45120000  0.42 -0.237433337
O  O62  1  0.06330000  0.94120000  0.95120000  0.42 -0.237433337
O  O63  1  0.44120000  0.43670000  0.70120000  0.42 -0.237433337
O  O64  1  0.55880000  0.56330000  0.20120000  0.42 -0.2342192365
O  O65  1  0.51300000  0.61610000  0.48140000  0.58 0.0037593034
O  O66  1  0.48700000  0.38390000  0.98140000  0.58 0.0037593034
O  O67  1  0.11610000  0.98700000  0.23140000  0.58 0.0137585518
O  O68  1  0.88390000  0.01300000  0.73140000  0.58 0.0037593034
O  O69  1  0.01300000  0.88390000  0.26860000  0.58 0.0037593034
O  O70  1  0.98700000  0.11610000  0.76860000  0.58 0.0156291849
O  O71  1  0.61610000  0.51300000  0.51860000  0.58 0.0037593034
O  O72  1  0.38390000  0.48700000  0.01860000  0.58 0.0156291849
O  O73  1  0.43920000  0.48790000  0.27830000  0.58 -0.237433337
O  O74  1  0.56080000  0.51210000  0.77830000  0.58 -0.2342192365
O  O75  1  0.98790000  0.06080000  0.02830000  0.58 -0.237433337
O  O76  1  0.01210000  0.93920000  0.52830000  0.58 -0.237433337
O  O77  1  0.93920000  0.01210000  0.47170000  0.58 -0.237433337
O  O78  1  0.06080000  0.98790000  0.97170000  0.58 -0.237433337
O  O79  1  0.48790000  0.43920000  0.72170000  0.58 -0.2342192365
O  O80  1  0.51210000  0.56080000  0.22170000  0.58 -0.237433337
