# DDEC6 charges by PACMAN v1.1 (https://github.com/mtap-research/PACMAN-charge/)
data_c5dt03710g2_7_ASR_pacman
_symmetry_space_group_name_H-M   'P 1'
_cell_length_a   15.02940000
_cell_length_b   15.02940000
_cell_length_c   19.23620000
_cell_angle_alpha   90.00000000
_cell_angle_beta   90.00000000
_cell_angle_gamma   90.00000000
_symmetry_Int_Tables_number   1
_chemical_formula_structural   ZnH7C11NO4
_chemical_formula_sum   'Zn8 H56 C88 N8 O32'
_cell_volume   4345.12795540
_cell_formula_units_Z   8
loop_
 _symmetry_equiv_pos_site_id
 _symmetry_equiv_pos_as_xyz
  1  'x, y, z'
loop_
 _atom_site_type_symbol
 _atom_site_label
 _atom_site_symmetry_multiplicity
 _atom_site_fract_x
 _atom_site_fract_y
 _atom_site_fract_z
 _atom_site_occupancy
 _atom_site_charge
Zn  Zn1  1  0.00000000  0.00000000  0.07664000  1.0 0.7570483489
Zn  Zn2  1  0.00000000  0.00000000  0.42336000  1.0 0.7570483489
Zn  Zn3  1  0.50000000  0.50000000  0.57664000  1.0 0.7570483489
Zn  Zn4  1  0.50000000  0.50000000  0.92336000  1.0 0.7570483489
Zn  Zn5  1  0.00000000  0.00000000  0.92336000  1.0 0.7570483489
Zn  Zn6  1  0.00000000  0.00000000  0.57664000  1.0 0.7570483489
Zn  Zn7  1  0.50000000  0.50000000  0.42336000  1.0 0.7570483489
Zn  Zn8  1  0.50000000  0.50000000  0.07664000  1.0 0.7570483489
H  H1  1  0.85270000  0.24360000  0.10450000  1.0 0.1262349393
H  H2  1  0.14730000  0.75640000  0.10450000  1.0 0.1262349393
H  H3  1  0.75640000  0.85270000  0.10450000  1.0 0.1262349393
H  H4  1  0.24360000  0.14730000  0.10450000  1.0 0.1262349393
H  H5  1  0.14730000  0.24360000  0.39550000  1.0 0.1262349393
H  H6  1  0.85270000  0.75640000  0.39550000  1.0 0.1262349393
H  H7  1  0.24360000  0.85270000  0.39550000  1.0 0.1262349393
H  H8  1  0.75640000  0.14730000  0.39550000  1.0 0.1262349393
H  H9  1  0.35270000  0.74360000  0.60450000  1.0 0.1262349393
H  H10  1  0.64730000  0.25640000  0.60450000  1.0 0.1262349393
H  H11  1  0.25640000  0.35270000  0.60450000  1.0 0.1262349393
H  H12  1  0.74360000  0.64730000  0.60450000  1.0 0.1262349393
H  H13  1  0.64730000  0.74360000  0.89550000  1.0 0.1262349393
H  H14  1  0.35270000  0.25640000  0.89550000  1.0 0.1262349393
H  H15  1  0.74360000  0.35270000  0.89550000  1.0 0.1262349393
H  H16  1  0.25640000  0.64730000  0.89550000  1.0 0.1262349393
H  H17  1  0.14730000  0.75640000  0.89550000  1.0 0.1262349393
H  H18  1  0.85270000  0.24360000  0.89550000  1.0 0.1262349393
H  H19  1  0.24360000  0.14730000  0.89550000  1.0 0.1262349393
H  H20  1  0.75640000  0.85270000  0.89550000  1.0 0.1262349393
H  H21  1  0.85270000  0.75640000  0.60450000  1.0 0.1262349393
H  H22  1  0.14730000  0.24360000  0.60450000  1.0 0.1262349393
H  H23  1  0.75640000  0.14730000  0.60450000  1.0 0.1262349393
H  H24  1  0.24360000  0.85270000  0.60450000  1.0 0.1262349393
H  H25  1  0.64730000  0.25640000  0.39550000  1.0 0.1262349393
H  H26  1  0.35270000  0.74360000  0.39550000  1.0 0.1262349393
H  H27  1  0.74360000  0.64730000  0.39550000  1.0 0.1262349393
H  H28  1  0.25640000  0.35270000  0.39550000  1.0 0.1262349393
H  H29  1  0.35270000  0.25640000  0.10450000  1.0 0.1262349393
H  H30  1  0.64730000  0.74360000  0.10450000  1.0 0.1262349393
H  H31  1  0.25640000  0.64730000  0.10450000  1.0 0.1262349393
H  H32  1  0.74360000  0.35270000  0.10450000  1.0 0.1262349393
H  H33  1  0.90290000  0.09400000  0.18230000  0.375 0.0812702524
H  H34  1  0.09710000  0.90600000  0.18230000  0.375 0.0812702524
H  H35  1  0.90600000  0.90290000  0.18230000  0.375 0.0812702524
H  H36  1  0.09400000  0.09710000  0.18230000  0.375 0.0812702524
H  H37  1  0.09710000  0.09400000  0.31770000  0.375 0.0812702524
H  H38  1  0.90290000  0.90600000  0.31770000  0.375 0.0812702524
H  H39  1  0.09400000  0.90290000  0.31770000  0.375 0.0812702524
H  H40  1  0.90600000  0.09710000  0.31770000  0.375 0.0812702524
H  H41  1  0.40290000  0.59400000  0.68230000  0.375 0.0812702524
H  H42  1  0.59710000  0.40600000  0.68230000  0.375 0.0812702524
H  H43  1  0.40600000  0.40290000  0.68230000  0.375 0.0812702524
H  H44  1  0.59400000  0.59710000  0.68230000  0.375 0.0812702524
H  H45  1  0.59710000  0.59400000  0.81770000  0.375 0.0812702524
H  H46  1  0.40290000  0.40600000  0.81770000  0.375 0.0812702524
H  H47  1  0.59400000  0.40290000  0.81770000  0.375 0.0812702524
H  H48  1  0.40600000  0.59710000  0.81770000  0.375 0.0812702524
H  H49  1  0.09710000  0.90600000  0.81770000  0.375 0.0812702524
H  H50  1  0.90290000  0.09400000  0.81770000  0.375 0.0812702524
H  H51  1  0.09400000  0.09710000  0.81770000  0.375 0.0812702524
H  H52  1  0.90600000  0.90290000  0.81770000  0.375 0.0812702524
H  H53  1  0.90290000  0.90600000  0.68230000  0.375 0.0812702524
H  H54  1  0.09710000  0.09400000  0.68230000  0.375 0.0812702524
H  H55  1  0.90600000  0.09710000  0.68230000  0.375 0.0812702524
H  H56  1  0.09400000  0.90290000  0.68230000  0.375 0.0812702524
H  H57  1  0.59710000  0.40600000  0.31770000  0.375 0.0812702524
H  H58  1  0.40290000  0.59400000  0.31770000  0.375 0.0812702524
H  H59  1  0.59400000  0.59710000  0.31770000  0.375 0.0812702524
H  H60  1  0.40600000  0.40290000  0.31770000  0.375 0.0812702524
H  H61  1  0.40290000  0.40600000  0.18230000  0.375 0.0812702524
H  H62  1  0.59710000  0.59400000  0.18230000  0.375 0.0812702524
H  H63  1  0.40600000  0.59710000  0.18230000  0.375 0.0812702524
H  H64  1  0.59400000  0.40290000  0.18230000  0.375 0.0812702524
H  H65  1  0.99440000  0.12900000  0.21410000  0.375 0.0958348876
H  H66  1  0.00560000  0.87100000  0.21410000  0.375 0.0958348876
H  H67  1  0.87100000  0.99440000  0.21410000  0.375 0.0958348876
H  H68  1  0.12900000  0.00560000  0.21410000  0.375 0.0958348876
H  H69  1  0.00560000  0.12900000  0.28590000  0.375 0.0958348876
H  H70  1  0.99440000  0.87100000  0.28590000  0.375 0.0958348876
H  H71  1  0.12900000  0.99440000  0.28590000  0.375 0.0958348876
H  H72  1  0.87100000  0.00560000  0.28590000  0.375 0.0958348876
H  H73  1  0.49440000  0.62900000  0.71410000  0.375 0.0958348876
H  H74  1  0.50560000  0.37100000  0.71410000  0.375 0.0958348876
H  H75  1  0.37100000  0.49440000  0.71410000  0.375 0.0958348876
H  H76  1  0.62900000  0.50560000  0.71410000  0.375 0.0958348876
H  H77  1  0.50560000  0.62900000  0.78590000  0.375 0.0958348876
H  H78  1  0.49440000  0.37100000  0.78590000  0.375 0.0958348876
H  H79  1  0.62900000  0.49440000  0.78590000  0.375 0.0958348876
H  H80  1  0.37100000  0.50560000  0.78590000  0.375 0.0958348876
H  H81  1  0.00560000  0.87100000  0.78590000  0.375 0.0958348876
H  H82  1  0.99440000  0.12900000  0.78590000  0.375 0.0958348876
H  H83  1  0.12900000  0.00560000  0.78590000  0.375 0.0958348876
H  H84  1  0.87100000  0.99440000  0.78590000  0.375 0.0958348876
H  H85  1  0.99440000  0.87100000  0.71410000  0.375 0.0958348876
H  H86  1  0.00560000  0.12900000  0.71410000  0.375 0.0958348876
H  H87  1  0.87100000  0.00560000  0.71410000  0.375 0.0958348876
H  H88  1  0.12900000  0.99440000  0.71410000  0.375 0.0958348876
H  H89  1  0.50560000  0.37100000  0.28590000  0.375 0.0958348876
H  H90  1  0.49440000  0.62900000  0.28590000  0.375 0.0958348876
H  H91  1  0.62900000  0.50560000  0.28590000  0.375 0.0958348876
H  H92  1  0.37100000  0.49440000  0.28590000  0.375 0.0958348876
H  H93  1  0.49440000  0.37100000  0.21410000  0.375 0.0958348876
H  H94  1  0.50560000  0.62900000  0.21410000  0.375 0.0958348876
H  H95  1  0.37100000  0.50560000  0.21410000  0.375 0.0958348876
H  H96  1  0.62900000  0.49440000  0.21410000  0.375 0.0958348876
C  C1  1  0.92270000  0.15180000  0.00000000  1.0 0.5525100409
C  C2  1  0.07730000  0.84820000  0.00000000  1.0 0.5525100409
C  C3  1  0.84820000  0.92270000  0.00000000  1.0 0.5525100409
C  C4  1  0.15180000  0.07730000  0.00000000  1.0 0.5525100409
C  C5  1  0.07730000  0.15180000  0.50000000  1.0 0.5525100409
C  C6  1  0.92270000  0.84820000  0.50000000  1.0 0.5525100409
C  C7  1  0.15180000  0.92270000  0.50000000  1.0 0.5525100409
C  C8  1  0.84820000  0.07730000  0.50000000  1.0 0.5525100409
C  C9  1  0.42270000  0.65180000  0.50000000  1.0 0.5525100409
C  C10  1  0.57730000  0.34820000  0.50000000  1.0 0.5525100409
C  C11  1  0.34820000  0.42270000  0.50000000  1.0 0.5525100409
C  C12  1  0.65180000  0.57730000  0.50000000  1.0 0.5525100409
C  C13  1  0.57730000  0.65180000  0.00000000  1.0 0.5525100409
C  C14  1  0.42270000  0.34820000  0.00000000  1.0 0.5525100409
C  C15  1  0.65180000  0.42270000  0.00000000  1.0 0.5525100409
C  C16  1  0.34820000  0.57730000  0.00000000  1.0 0.5525100409
C  C17  1  0.86070000  0.23000000  0.00000000  1.0 0.0143021117
C  C18  1  0.13930000  0.77000000  0.00000000  1.0 0.0143021117
C  C19  1  0.77000000  0.86070000  0.00000000  1.0 0.0143021117
C  C20  1  0.23000000  0.13930000  0.00000000  1.0 0.0143021117
C  C21  1  0.13930000  0.23000000  0.50000000  1.0 0.0143021117
C  C22  1  0.86070000  0.77000000  0.50000000  1.0 0.0143021117
C  C23  1  0.23000000  0.86070000  0.50000000  1.0 0.0143021117
C  C24  1  0.77000000  0.13930000  0.50000000  1.0 0.015121813
C  C25  1  0.36070000  0.73000000  0.50000000  1.0 0.0143021117
C  C26  1  0.63930000  0.27000000  0.50000000  1.0 0.0143021117
C  C27  1  0.27000000  0.36070000  0.50000000  1.0 0.0143021117
C  C28  1  0.73000000  0.63930000  0.50000000  1.0 0.0143021117
C  C29  1  0.63930000  0.73000000  0.00000000  1.0 0.0143021117
C  C30  1  0.36070000  0.27000000  0.00000000  1.0 0.0143021117
C  C31  1  0.73000000  0.36070000  0.00000000  1.0 0.0143021117
C  C32  1  0.27000000  0.63930000  0.00000000  1.0 0.0143021117
C  C33  1  0.82953000  0.26451000  0.06218000  1.0 -0.1229362767
C  C34  1  0.17047000  0.73549000  0.06218000  1.0 -0.1229362767
C  C35  1  0.73549000  0.82953000  0.06218000  1.0 -0.1229362767
C  C36  1  0.26451000  0.17047000  0.06218000  1.0 -0.1229362767
C  C37  1  0.17047000  0.26451000  0.43782000  1.0 -0.1229362767
C  C38  1  0.82953000  0.73549000  0.43782000  1.0 -0.1229362767
C  C39  1  0.26451000  0.82953000  0.43782000  1.0 -0.1229362767
C  C40  1  0.73549000  0.17047000  0.43782000  1.0 -0.1229362767
C  C41  1  0.32953000  0.76451000  0.56218000  1.0 -0.1229362767
C  C42  1  0.67047000  0.23549000  0.56218000  1.0 -0.1229362767
C  C43  1  0.23549000  0.32953000  0.56218000  1.0 -0.1229362767
C  C44  1  0.76451000  0.67047000  0.56218000  1.0 -0.1229362767
C  C45  1  0.67047000  0.76451000  0.93782000  1.0 -0.1229362767
C  C46  1  0.32953000  0.23549000  0.93782000  1.0 -0.1229362767
C  C47  1  0.76451000  0.32953000  0.93782000  1.0 -0.1229362767
C  C48  1  0.23549000  0.67047000  0.93782000  1.0 -0.1229362767
C  C49  1  0.17047000  0.73549000  0.93782000  1.0 -0.1229362767
C  C50  1  0.82953000  0.26451000  0.93782000  1.0 -0.1229362767
C  C51  1  0.26451000  0.17047000  0.93782000  1.0 -0.1229362767
C  C52  1  0.73549000  0.82953000  0.93782000  1.0 -0.1229362767
C  C53  1  0.82953000  0.73549000  0.56218000  1.0 -0.1229362767
C  C54  1  0.17047000  0.26451000  0.56218000  1.0 -0.1229362767
C  C55  1  0.73549000  0.17047000  0.56218000  1.0 -0.1229362767
C  C56  1  0.26451000  0.82953000  0.56218000  1.0 -0.1229362767
C  C57  1  0.67047000  0.23549000  0.43782000  1.0 -0.1229362767
C  C58  1  0.32953000  0.76451000  0.43782000  1.0 -0.1229362767
C  C59  1  0.76451000  0.67047000  0.43782000  1.0 -0.1229362767
C  C60  1  0.23549000  0.32953000  0.43782000  1.0 -0.1229362767
C  C61  1  0.32953000  0.23549000  0.06218000  1.0 -0.1229362767
C  C62  1  0.67047000  0.76451000  0.06218000  1.0 -0.1229362767
C  C63  1  0.23549000  0.67047000  0.06218000  1.0 -0.1229362767
C  C64  1  0.76451000  0.32953000  0.06218000  1.0 -0.1229362767
C  C65  1  0.95400000  0.07790000  0.21120000  0.375 -0.0578438737
C  C66  1  0.04600000  0.92210000  0.21120000  0.375 -0.0578438737
C  C67  1  0.92210000  0.95400000  0.21120000  0.375 -0.0578438737
C  C68  1  0.07790000  0.04600000  0.21120000  0.375 -0.0578438737
C  C69  1  0.04600000  0.07790000  0.28880000  0.375 -0.0578438737
C  C70  1  0.95400000  0.92210000  0.28880000  0.375 -0.0578438737
C  C71  1  0.07790000  0.95400000  0.28880000  0.375 -0.0578438737
C  C72  1  0.92210000  0.04600000  0.28880000  0.375 -0.0578438737
C  C73  1  0.45400000  0.57790000  0.71120000  0.375 -0.0578438737
C  C74  1  0.54600000  0.42210000  0.71120000  0.375 -0.0578438737
C  C75  1  0.42210000  0.45400000  0.71120000  0.375 -0.0578438737
C  C76  1  0.57790000  0.54600000  0.71120000  0.375 -0.0578438737
C  C77  1  0.54600000  0.57790000  0.78880000  0.375 -0.0578438737
C  C78  1  0.45400000  0.42210000  0.78880000  0.375 -0.0578438737
C  C79  1  0.57790000  0.45400000  0.78880000  0.375 -0.0578438737
C  C80  1  0.42210000  0.54600000  0.78880000  0.375 -0.0578438737
C  C81  1  0.04600000  0.92210000  0.78880000  0.375 -0.0578438737
C  C82  1  0.95400000  0.07790000  0.78880000  0.375 -0.0578438737
C  C83  1  0.07790000  0.04600000  0.78880000  0.375 -0.0578438737
C  C84  1  0.92210000  0.95400000  0.78880000  0.375 -0.0578438737
C  C85  1  0.95400000  0.92210000  0.71120000  0.375 -0.0578438737
C  C86  1  0.04600000  0.07790000  0.71120000  0.375 -0.0578438737
C  C87  1  0.92210000  0.04600000  0.71120000  0.375 -0.0578438737
C  C88  1  0.07790000  0.95400000  0.71120000  0.375 -0.0578438737
C  C89  1  0.54600000  0.42210000  0.28880000  0.375 -0.0578438737
C  C90  1  0.45400000  0.57790000  0.28880000  0.375 -0.0578438737
C  C91  1  0.57790000  0.54600000  0.28880000  0.375 -0.0578438737
C  C92  1  0.42210000  0.45400000  0.28880000  0.375 -0.0578438737
C  C93  1  0.45400000  0.42210000  0.21120000  0.375 -0.0578438737
C  C94  1  0.54600000  0.57790000  0.21120000  0.375 -0.0578438737
C  C95  1  0.42210000  0.54600000  0.21120000  0.375 -0.0578438737
C  C96  1  0.57790000  0.45400000  0.21120000  0.375 -0.0578438737
C  C97  1  0.91530000  0.02500000  0.20860000  0.375 -0.0365458241
C  C98  1  0.08470000  0.97500000  0.20860000  0.375 -0.0365458241
C  C99  1  0.97500000  0.91530000  0.20860000  0.375 -0.0365458241
C  C100  1  0.02500000  0.08470000  0.20860000  0.375 -0.0365458241
C  C101  1  0.08470000  0.02500000  0.29140000  0.375 -0.0365458241
C  C102  1  0.91530000  0.97500000  0.29140000  0.375 -0.0365458241
C  C103  1  0.02500000  0.91530000  0.29140000  0.375 -0.0365458241
C  C104  1  0.97500000  0.08470000  0.29140000  0.375 -0.0365458241
C  C105  1  0.41530000  0.52500000  0.70860000  0.375 -0.0365458241
C  C106  1  0.58470000  0.47500000  0.70860000  0.375 -0.0365458241
C  C107  1  0.47500000  0.41530000  0.70860000  0.375 -0.0365458241
C  C108  1  0.52500000  0.58470000  0.70860000  0.375 -0.0365458241
C  C109  1  0.58470000  0.52500000  0.79140000  0.375 -0.0365458241
C  C110  1  0.41530000  0.47500000  0.79140000  0.375 -0.0365458241
C  C111  1  0.52500000  0.41530000  0.79140000  0.375 -0.0365458241
C  C112  1  0.47500000  0.58470000  0.79140000  0.375 -0.0365458241
C  C113  1  0.08470000  0.97500000  0.79140000  0.375 -0.0365458241
C  C114  1  0.91530000  0.02500000  0.79140000  0.375 -0.0365458241
C  C115  1  0.02500000  0.08470000  0.79140000  0.375 -0.0365458241
C  C116  1  0.97500000  0.91530000  0.79140000  0.375 -0.0365458241
C  C117  1  0.91530000  0.97500000  0.70860000  0.375 -0.0365458241
C  C118  1  0.08470000  0.02500000  0.70860000  0.375 -0.0365458241
C  C119  1  0.97500000  0.08470000  0.70860000  0.375 -0.0365458241
C  C120  1  0.02500000  0.91530000  0.70860000  0.375 -0.0365458241
C  C121  1  0.58470000  0.47500000  0.29140000  0.375 -0.0365458241
C  C122  1  0.41530000  0.52500000  0.29140000  0.375 -0.0365458241
C  C123  1  0.52500000  0.58470000  0.29140000  0.375 -0.0365458241
C  C124  1  0.47500000  0.41530000  0.29140000  0.375 -0.0365458241
C  C125  1  0.41530000  0.47500000  0.20860000  0.375 -0.0365458241
C  C126  1  0.58470000  0.52500000  0.20860000  0.375 -0.0365458241
C  C127  1  0.47500000  0.58470000  0.20860000  0.375 -0.0365458241
C  C128  1  0.52500000  0.41530000  0.20860000  0.375 -0.0365458241
N  N1  1  0.00000000  0.00000000  0.18296000  1.0 -0.107885925
N  N2  1  0.00000000  0.00000000  0.31704000  1.0 -0.107885925
N  N3  1  0.50000000  0.50000000  0.68296000  1.0 -0.107885925
N  N4  1  0.50000000  0.50000000  0.81704000  1.0 -0.107885925
N  N5  1  0.00000000  0.00000000  0.81704000  1.0 -0.107885925
N  N6  1  0.00000000  0.00000000  0.68296000  1.0 -0.107885925
N  N7  1  0.50000000  0.50000000  0.31704000  1.0 -0.107885925
N  N8  1  0.50000000  0.50000000  0.18296000  1.0 -0.107885925
O  O1  1  0.94566000  0.12168000  0.05779000  1.0 -0.5317364028
O  O2  1  0.05434000  0.87832000  0.05779000  1.0 -0.5317364028
O  O3  1  0.87832000  0.94566000  0.05779000  1.0 -0.5317364028
O  O4  1  0.12168000  0.05434000  0.05779000  1.0 -0.5317364028
O  O5  1  0.05434000  0.12168000  0.44221000  1.0 -0.5317364028
O  O6  1  0.94566000  0.87832000  0.44221000  1.0 -0.5317364028
O  O7  1  0.12168000  0.94566000  0.44221000  1.0 -0.5317364028
O  O8  1  0.87832000  0.05434000  0.44221000  1.0 -0.5317364028
O  O9  1  0.44566000  0.62168000  0.55779000  1.0 -0.5317364028
O  O10  1  0.55434000  0.37832000  0.55779000  1.0 -0.5317364028
O  O11  1  0.37832000  0.44566000  0.55779000  1.0 -0.5317364028
O  O12  1  0.62168000  0.55434000  0.55779000  1.0 -0.5317364028
O  O13  1  0.55434000  0.62168000  0.94221000  1.0 -0.5317364028
O  O14  1  0.44566000  0.37832000  0.94221000  1.0 -0.5317364028
O  O15  1  0.62168000  0.44566000  0.94221000  1.0 -0.5317364028
O  O16  1  0.37832000  0.55434000  0.94221000  1.0 -0.5317364028
O  O17  1  0.05434000  0.87832000  0.94221000  1.0 -0.5317364028
O  O18  1  0.94566000  0.12168000  0.94221000  1.0 -0.5317364028
O  O19  1  0.12168000  0.05434000  0.94221000  1.0 -0.5317364028
O  O20  1  0.87832000  0.94566000  0.94221000  1.0 -0.5317364028
O  O21  1  0.94566000  0.87832000  0.55779000  1.0 -0.5317364028
O  O22  1  0.05434000  0.12168000  0.55779000  1.0 -0.5317364028
O  O23  1  0.87832000  0.05434000  0.55779000  1.0 -0.5317364028
O  O24  1  0.12168000  0.94566000  0.55779000  1.0 -0.5317364028
O  O25  1  0.55434000  0.37832000  0.44221000  1.0 -0.5317364028
O  O26  1  0.44566000  0.62168000  0.44221000  1.0 -0.5317364028
O  O27  1  0.62168000  0.55434000  0.44221000  1.0 -0.5317364028
O  O28  1  0.37832000  0.44566000  0.44221000  1.0 -0.5317364028
O  O29  1  0.44566000  0.37832000  0.05779000  1.0 -0.5317364028
O  O30  1  0.55434000  0.62168000  0.05779000  1.0 -0.5317364028
O  O31  1  0.37832000  0.55434000  0.05779000  1.0 -0.5317364028
O  O32  1  0.62168000  0.44566000  0.05779000  1.0 -0.5317364028
