# DDEC6 charges by PACMAN v1.1 (https://github.com/mtap-research/PACMAN-charge/)
data_c7cc06125k5_1_FSR_pacman
_symmetry_space_group_name_H-M   'P 1'
_cell_length_a   19.36150000
_cell_length_b   19.36150000
_cell_length_c   14.16450000
_cell_angle_alpha   90.00000000
_cell_angle_beta   90.00000000
_cell_angle_gamma   90.00000000
_symmetry_Int_Tables_number   1
_chemical_formula_structural   ZnH2C8S(NO2)2
_chemical_formula_sum   'Zn16 H32 C128 S16 N32 O64'
_cell_volume   5309.81328523
_cell_formula_units_Z   16
loop_
 _symmetry_equiv_pos_site_id
 _symmetry_equiv_pos_as_xyz
  1  'x, y, z'
loop_
 _atom_site_type_symbol
 _atom_site_label
 _atom_site_symmetry_multiplicity
 _atom_site_fract_x
 _atom_site_fract_y
 _atom_site_fract_z
 _atom_site_occupancy
 _atom_site_charge
Zn  Zn1  1  0.49192000  0.03591000  0.64061000  1.0 0.893331537
Zn  Zn2  1  0.50808000  0.96409000  0.14061000  1.0 0.893331537
Zn  Zn3  1  0.53591000  0.00808000  0.39061000  1.0 0.893331537
Zn  Zn4  1  0.46409000  0.99192000  0.89061000  1.0 0.893331537
Zn  Zn5  1  0.99192000  0.46409000  0.10939000  1.0 0.893331537
Zn  Zn6  1  0.00808000  0.53591000  0.60939000  1.0 0.893331537
Zn  Zn7  1  0.03591000  0.49192000  0.35939000  1.0 0.893331537
Zn  Zn8  1  0.96409000  0.50808000  0.85939000  1.0 0.893331537
Zn  Zn9  1  0.53517000  0.46483000  0.25000000  1.0 0.774386219
Zn  Zn10  1  0.46483000  0.53517000  0.75000000  1.0 0.774386219
Zn  Zn11  1  0.96483000  0.96483000  0.00000000  1.0 0.775505336
Zn  Zn12  1  0.03517000  0.03517000  0.50000000  1.0 0.774386219
Zn  Zn13  1  0.49122000  0.49122000  0.50000000  1.0 0.794664355
Zn  Zn14  1  0.50878000  0.50878000  0.00000000  1.0 0.794664355
Zn  Zn15  1  0.99122000  0.00878000  0.25000000  1.0 0.794664355
Zn  Zn16  1  0.00878000  0.99122000  0.75000000  1.0 0.794664355
H  H1  1  0.47890000  0.85230000  0.56490000  1.0 0.1320638079
H  H2  1  0.52110000  0.14770000  0.06490000  1.0 0.1320638079
H  H3  1  0.35230000  0.02110000  0.31490000  1.0 0.1320638079
H  H4  1  0.64770000  0.97890000  0.81490000  1.0 0.1320638079
H  H5  1  0.97890000  0.64770000  0.18510000  1.0 0.1320638079
H  H6  1  0.02110000  0.35230000  0.68510000  1.0 0.1320638079
H  H7  1  0.85230000  0.47890000  0.43510000  1.0 0.1320638079
H  H8  1  0.14770000  0.52110000  0.93510000  1.0 0.1320638079
H  H9  1  0.48370000  0.74190000  0.49200000  1.0 0.0995574542
H  H10  1  0.51630000  0.25810000  0.99200000  1.0 0.0995574542
H  H11  1  0.24190000  0.01630000  0.24200000  1.0 0.0995574542
H  H12  1  0.75810000  0.98370000  0.74200000  1.0 0.0995574542
H  H13  1  0.98370000  0.75810000  0.25800000  1.0 0.0995574542
H  H14  1  0.01630000  0.24190000  0.75800000  1.0 0.0995574542
H  H15  1  0.74190000  0.48370000  0.50800000  1.0 0.0995574542
H  H16  1  0.25810000  0.51630000  0.00800000  1.0 0.0995574542
H  H17  1  0.34980000  0.43760000  0.18050000  1.0 0.0995574542
H  H18  1  0.65020000  0.56240000  0.68050000  1.0 0.0995574542
H  H19  1  0.93760000  0.15020000  0.93050000  1.0 0.0995574542
H  H20  1  0.06240000  0.84980000  0.43050000  1.0 0.0995574542
H  H21  1  0.84980000  0.06240000  0.56950000  1.0 0.0995574542
H  H22  1  0.15020000  0.93760000  0.06950000  1.0 0.0995574542
H  H23  1  0.43760000  0.34980000  0.81950000  1.0 0.0995574542
H  H24  1  0.56240000  0.65020000  0.31950000  1.0 0.0995574542
H  H25  1  0.24020000  0.43030000  0.11290000  1.0 0.108710678
H  H26  1  0.75980000  0.56970000  0.61290000  1.0 0.108710678
H  H27  1  0.93030000  0.25980000  0.86290000  1.0 0.108710678
H  H28  1  0.06970000  0.74020000  0.36290000  1.0 0.108710678
H  H29  1  0.74020000  0.06970000  0.63710000  1.0 0.108710678
H  H30  1  0.25980000  0.93030000  0.13710000  1.0 0.108710678
H  H31  1  0.43030000  0.24020000  0.88710000  1.0 0.108710678
H  H32  1  0.56970000  0.75980000  0.38710000  1.0 0.108710678
C  C1  1  0.48400000  0.89200000  0.73450000  1.0 0.582015926
C  C2  1  0.51600000  0.10800000  0.23450000  1.0 0.582015926
C  C3  1  0.39200000  0.01600000  0.48450000  1.0 0.582015926
C  C4  1  0.60800000  0.98400000  0.98450000  1.0 0.582015926
C  C5  1  0.98400000  0.60800000  0.01550000  1.0 0.582015926
C  C6  1  0.01600000  0.39200000  0.51550000  1.0 0.582015926
C  C7  1  0.89200000  0.48400000  0.26550000  1.0 0.582015926
C  C8  1  0.10800000  0.51600000  0.76550000  1.0 0.582015926
C  C9  1  0.48600000  0.82060000  0.69560000  1.0 -0.0883880854
C  C10  1  0.51400000  0.17940000  0.19560000  1.0 -0.0883880854
C  C11  1  0.32060000  0.01400000  0.44560000  1.0 -0.0883880854
C  C12  1  0.67940000  0.98600000  0.94560000  1.0 -0.0883880854
C  C13  1  0.98600000  0.67940000  0.05440000  1.0 -0.0883880854
C  C14  1  0.01400000  0.32060000  0.55440000  1.0 -0.0883880854
C  C15  1  0.82060000  0.48600000  0.30440000  1.0 -0.0883880854
C  C16  1  0.17940000  0.51400000  0.80440000  1.0 -0.0883880854
C  C17  1  0.48210000  0.81320000  0.60270000  1.0 -0.0820460667
C  C18  1  0.51790000  0.18680000  0.10270000  1.0 -0.0820460667
C  C19  1  0.31320000  0.01790000  0.35270000  1.0 -0.0820460667
C  C20  1  0.68680000  0.98210000  0.85270000  1.0 -0.0820460667
C  C21  1  0.98210000  0.68680000  0.14730000  1.0 -0.0820460667
C  C22  1  0.01790000  0.31320000  0.64730000  1.0 -0.0820460667
C  C23  1  0.81320000  0.48210000  0.39730000  1.0 -0.0820460667
C  C24  1  0.18680000  0.51790000  0.89730000  1.0 -0.0820460667
C  C25  1  0.48270000  0.74430000  0.55760000  1.0 -0.1100037308
C  C26  1  0.51730000  0.25570000  0.05760000  1.0 -0.1100037308
C  C27  1  0.24430000  0.01730000  0.30760000  1.0 -0.1100037308
C  C28  1  0.75570000  0.98270000  0.80760000  1.0 -0.1100037308
C  C29  1  0.98270000  0.75570000  0.19240000  1.0 -0.1100037308
C  C30  1  0.01730000  0.24430000  0.69240000  1.0 -0.1100037308
C  C31  1  0.74430000  0.48270000  0.44240000  1.0 -0.1100037308
C  C32  1  0.25570000  0.51730000  0.94240000  1.0 -0.1100037308
C  C33  1  0.48170000  0.68420000  0.60770000  1.0 -0.166090683
C  C34  1  0.51830000  0.31580000  0.10770000  1.0 -0.166090683
C  C35  1  0.18420000  0.01830000  0.35770000  1.0 -0.166090683
C  C36  1  0.81580000  0.98170000  0.85770000  1.0 -0.166090683
C  C37  1  0.98170000  0.81580000  0.14230000  1.0 -0.166090683
C  C38  1  0.01830000  0.18420000  0.64230000  1.0 -0.166090683
C  C39  1  0.68420000  0.48170000  0.39230000  1.0 -0.166090683
C  C40  1  0.31580000  0.51830000  0.89230000  1.0 -0.166090683
C  C41  1  0.47530000  0.69280000  0.70710000  1.0 0.108710678
C  C42  1  0.52470000  0.30720000  0.20710000  1.0 0.108710678
C  C43  1  0.19280000  0.02470000  0.45710000  1.0 0.108710678
C  C44  1  0.80720000  0.97530000  0.95710000  1.0 0.108710678
C  C45  1  0.97530000  0.80720000  0.04290000  1.0 0.108710678
C  C46  1  0.02470000  0.19280000  0.54290000  1.0 0.108710678
C  C47  1  0.69280000  0.47530000  0.29290000  1.0 0.108710678
C  C48  1  0.30720000  0.52470000  0.79290000  1.0 0.108710678
C  C49  1  0.47550000  0.76000000  0.75180000  1.0 0.1473425422
C  C50  1  0.52450000  0.24000000  0.25180000  1.0 0.1473425422
C  C51  1  0.26000000  0.02450000  0.50180000  1.0 0.1473425422
C  C52  1  0.74000000  0.97550000  0.00180000  1.0 0.1473425422
C  C53  1  0.97550000  0.74000000  0.99820000  1.0 0.1473425422
C  C54  1  0.02450000  0.26000000  0.49820000  1.0 0.1473425422
C  C55  1  0.76000000  0.47550000  0.24820000  1.0 0.1473425422
C  C56  1  0.24000000  0.52450000  0.74820000  1.0 0.1473425422
C  C57  1  0.48630000  0.61730000  0.55960000  1.0 0.4541080725
C  C58  1  0.51370000  0.38270000  0.05960000  1.0 0.4541080725
C  C59  1  0.11730000  0.01370000  0.30960000  1.0 0.4541080725
C  C60  1  0.88270000  0.98630000  0.80960000  1.0 0.4541080725
C  C61  1  0.98630000  0.88270000  0.19040000  1.0 0.4541080725
C  C62  1  0.01370000  0.11730000  0.69040000  1.0 0.4541080725
C  C63  1  0.61730000  0.48630000  0.44040000  1.0 0.4541080725
C  C64  1  0.38270000  0.51370000  0.94040000  1.0 0.4541080725
C  C65  1  0.39280000  0.47650000  0.34650000  1.0 0.506019542
C  C66  1  0.60720000  0.52350000  0.84650000  1.0 0.506019542
C  C67  1  0.97650000  0.10720000  0.09650000  1.0 0.506019542
C  C68  1  0.02350000  0.89280000  0.59650000  1.0 0.506019542
C  C69  1  0.89280000  0.02350000  0.40350000  1.0 0.506019542
C  C70  1  0.10720000  0.97650000  0.90350000  1.0 0.506019542
C  C71  1  0.47650000  0.39280000  0.65350000  1.0 0.506019542
C  C72  1  0.52350000  0.60720000  0.15350000  1.0 0.506019542
C  C73  1  0.32090000  0.47500000  0.30670000  1.0 -0.1100037308
C  C74  1  0.67910000  0.52500000  0.80670000  1.0 -0.1100037308
C  C75  1  0.97500000  0.17910000  0.05670000  1.0 -0.1100037308
C  C76  1  0.02500000  0.82090000  0.55670000  1.0 -0.1100037308
C  C77  1  0.82090000  0.02500000  0.44330000  1.0 -0.1100037308
C  C78  1  0.17910000  0.97500000  0.94330000  1.0 -0.1100037308
C  C79  1  0.47500000  0.32090000  0.69330000  1.0 -0.1100037308
C  C80  1  0.52500000  0.67910000  0.19330000  1.0 -0.1100037308
C  C81  1  0.31150000  0.45090000  0.21580000  1.0 -0.1209466364
C  C82  1  0.68850000  0.54910000  0.71580000  1.0 -0.1209466364
C  C83  1  0.95090000  0.18850000  0.96580000  1.0 -0.1209466364
C  C84  1  0.04910000  0.81150000  0.46580000  1.0 -0.1209466364
C  C85  1  0.81150000  0.04910000  0.53420000  1.0 -0.1209466364
C  C86  1  0.18850000  0.95090000  0.03420000  1.0 -0.1209466364
C  C87  1  0.45090000  0.31150000  0.78420000  1.0 -0.1209466364
C  C88  1  0.54910000  0.68850000  0.28420000  1.0 -0.1209466364
C  C89  1  0.24410000  0.44580000  0.17480000  1.0 -0.1209466364
C  C90  1  0.75590000  0.55420000  0.67480000  1.0 -0.1209466364
C  C91  1  0.94580000  0.25590000  0.92480000  1.0 -0.1209466364
C  C92  1  0.05420000  0.74410000  0.42480000  1.0 -0.1209466364
C  C93  1  0.74410000  0.05420000  0.57520000  1.0 -0.1209466364
C  C94  1  0.25590000  0.94580000  0.07520000  1.0 -0.1209466364
C  C95  1  0.44580000  0.24410000  0.82520000  1.0 -0.1209466364
C  C96  1  0.55420000  0.75590000  0.32520000  1.0 -0.1209466364
C  C97  1  0.18570000  0.46290000  0.22260000  1.0 -0.0820460667
C  C98  1  0.81430000  0.53710000  0.72260000  1.0 -0.0820460667
C  C99  1  0.96290000  0.31430000  0.97260000  1.0 -0.0820460667
C  C100  1  0.03710000  0.68570000  0.47260000  1.0 -0.0820460667
C  C101  1  0.68570000  0.03710000  0.52740000  1.0 -0.0820460667
C  C102  1  0.31430000  0.96290000  0.02740000  1.0 -0.0820460667
C  C103  1  0.46290000  0.18570000  0.77740000  1.0 -0.0820460667
C  C104  1  0.53710000  0.81430000  0.27740000  1.0 -0.0820460667
C  C105  1  0.19330000  0.48200000  0.31840000  1.0 0.108710678
C  C106  1  0.80670000  0.51800000  0.81840000  1.0 0.108710678
C  C107  1  0.98200000  0.30670000  0.06840000  1.0 0.108710678
C  C108  1  0.01800000  0.69330000  0.56840000  1.0 0.108710678
C  C109  1  0.69330000  0.01800000  0.43160000  1.0 0.108710678
C  C110  1  0.30670000  0.98200000  0.93160000  1.0 0.108710678
C  C111  1  0.48200000  0.19330000  0.68160000  1.0 0.108710678
C  C112  1  0.51800000  0.80670000  0.18160000  1.0 0.108710678
C  C113  1  0.26030000  0.48700000  0.36160000  1.0 0.1386676114
C  C114  1  0.73970000  0.51300000  0.86160000  1.0 0.1386676114
C  C115  1  0.98700000  0.23970000  0.11160000  1.0 0.1386676114
C  C116  1  0.01300000  0.76030000  0.61160000  1.0 0.1386676114
C  C117  1  0.76030000  0.01300000  0.38840000  1.0 0.1386676114
C  C118  1  0.23970000  0.98700000  0.88840000  1.0 0.1386676114
C  C119  1  0.48700000  0.26030000  0.63840000  1.0 0.1386676114
C  C120  1  0.51300000  0.73970000  0.13840000  1.0 0.1386676114
C  C121  1  0.11720000  0.46280000  0.17250000  1.0 0.5485043246
C  C122  1  0.88280000  0.53720000  0.67250000  1.0 0.5485043246
C  C123  1  0.96280000  0.38280000  0.92250000  1.0 0.5485043246
C  C124  1  0.03720000  0.61720000  0.42250000  1.0 0.5485043246
C  C125  1  0.61720000  0.03720000  0.57750000  1.0 0.5485043246
C  C126  1  0.38280000  0.96280000  0.07750000  1.0 0.5485043246
C  C127  1  0.46280000  0.11720000  0.82750000  1.0 0.5485043246
C  C128  1  0.53720000  0.88280000  0.32750000  1.0 0.5485043246
S  S1  1  0.17750000  0.47040000  0.48690000  0.16 0.2922883611
S  S2  1  0.82250000  0.52960000  0.98690000  0.16 0.2922883611
S  S3  1  0.97040000  0.32250000  0.23690000  0.16 0.2922883611
S  S4  1  0.02960000  0.67750000  0.73690000  0.16 0.2922883611
S  S5  1  0.67750000  0.02960000  0.26310000  0.16 0.2922883611
S  S6  1  0.32250000  0.97040000  0.76310000  0.16 0.2922883611
S  S7  1  0.47040000  0.17750000  0.51310000  0.16 0.2922883611
S  S8  1  0.52960000  0.82250000  0.01310000  0.16 0.2922883611
S  S9  1  0.42340000  0.68360000  0.86370000  0.28 0.2601778079
S  S10  1  0.57660000  0.31640000  0.36370000  0.28 0.2601778079
S  S11  1  0.18360000  0.07660000  0.61370000  0.28 0.2601778079
S  S12  1  0.81640000  0.92340000  0.11370000  0.28 0.2601778079
S  S13  1  0.92340000  0.81640000  0.88630000  0.28 0.2601778079
S  S14  1  0.07660000  0.18360000  0.38630000  0.28 0.2601778079
S  S15  1  0.68360000  0.42340000  0.13630000  0.28 0.2601778079
S  S16  1  0.31640000  0.57660000  0.63630000  0.28 0.2601778079
S  S17  1  0.47370000  0.67495000  0.87330000  0.72 0.3193628397
S  S18  1  0.52630000  0.32505000  0.37330000  0.72 0.3193628397
S  S19  1  0.17495000  0.02630000  0.62330000  0.72 0.3193628397
S  S20  1  0.82505000  0.97370000  0.12330000  0.72 0.3193628397
S  S21  1  0.97370000  0.82505000  0.87670000  0.72 0.3193628397
S  S22  1  0.02630000  0.17495000  0.37670000  0.72 0.3193628397
S  S23  1  0.67495000  0.47370000  0.12670000  0.72 0.3193628397
S  S24  1  0.32505000  0.52630000  0.62670000  0.72 0.3193628397
S  S25  1  0.17798000  0.51660000  0.48030000  0.84 0.3619849887
S  S26  1  0.82202000  0.48340000  0.98030000  0.84 0.3619849887
S  S27  1  0.01660000  0.32202000  0.23030000  0.84 0.3619849887
S  S28  1  0.98340000  0.67798000  0.73030000  0.84 0.3619849887
S  S29  1  0.67798000  0.98340000  0.26970000  0.84 0.3619849887
S  S30  1  0.32202000  0.01660000  0.76970000  0.84 0.3619849887
S  S31  1  0.51660000  0.17798000  0.51970000  0.84 0.3619849887
S  S32  1  0.48340000  0.82202000  0.01970000  0.84 0.3619849887
N  N1  1  0.47030000  0.75610000  0.84280000  1.0 -0.3365415205
N  N2  1  0.52970000  0.24390000  0.34280000  1.0 -0.3365415205
N  N3  1  0.25610000  0.02970000  0.59280000  1.0 -0.3365415205
N  N4  1  0.74390000  0.97030000  0.09280000  1.0 -0.3365415205
N  N5  1  0.97030000  0.74390000  0.90720000  1.0 -0.3365415205
N  N6  1  0.02970000  0.25610000  0.40720000  1.0 -0.3365415205
N  N7  1  0.75610000  0.47030000  0.15720000  1.0 -0.3365415205
N  N8  1  0.24390000  0.52970000  0.65720000  1.0 -0.3365415205
N  N9  1  0.46680000  0.64320000  0.76860000  1.0 -0.3137112539
N  N10  1  0.53320000  0.35680000  0.26860000  1.0 -0.3137112539
N  N11  1  0.14320000  0.03320000  0.51860000  1.0 -0.3137112539
N  N12  1  0.85680000  0.96680000  0.01860000  1.0 -0.3137112539
N  N13  1  0.96680000  0.85680000  0.98140000  1.0 -0.3137112539
N  N14  1  0.03320000  0.14320000  0.48140000  1.0 -0.3137112539
N  N15  1  0.64320000  0.46680000  0.23140000  1.0 -0.3137112539
N  N16  1  0.35680000  0.53320000  0.73140000  1.0 -0.3137112539
N  N17  1  0.25840000  0.50530000  0.45200000  1.0 -0.3213974741
N  N18  1  0.74160000  0.49470000  0.95200000  1.0 -0.3213974741
N  N19  1  0.00530000  0.24160000  0.20200000  1.0 -0.3213974741
N  N20  1  0.99470000  0.75840000  0.70200000  1.0 -0.3213974741
N  N21  1  0.75840000  0.99470000  0.29800000  1.0 -0.3213974741
N  N22  1  0.24160000  0.00530000  0.79800000  1.0 -0.3213974741
N  N23  1  0.50530000  0.25840000  0.54800000  1.0 -0.3213974741
N  N24  1  0.49470000  0.74160000  0.04800000  1.0 -0.3213974741
N  N25  1  0.14380000  0.49410000  0.38110000  1.0 -0.3009733763
N  N26  1  0.85620000  0.50590000  0.88110000  1.0 -0.3009733763
N  N27  1  0.99410000  0.35620000  0.13110000  1.0 -0.3009733763
N  N28  1  0.00590000  0.64380000  0.63110000  1.0 -0.3009733763
N  N29  1  0.64380000  0.00590000  0.36890000  1.0 -0.3009733763
N  N30  1  0.35620000  0.99410000  0.86890000  1.0 -0.3009733763
N  N31  1  0.49410000  0.14380000  0.61890000  1.0 -0.3009733763
N  N32  1  0.50590000  0.85620000  0.11890000  1.0 -0.3009733763
O  O1  1  0.49600000  0.93750000  0.67690000  1.0 -0.5144391116
O  O2  1  0.50400000  0.06250000  0.17690000  1.0 -0.5144391116
O  O3  1  0.43750000  0.00400000  0.42690000  1.0 -0.5144391116
O  O4  1  0.56250000  0.99600000  0.92690000  1.0 -0.5144391116
O  O5  1  0.99600000  0.56250000  0.07310000  1.0 -0.5144391116
O  O6  1  0.00400000  0.43750000  0.57310000  1.0 -0.5144391116
O  O7  1  0.93750000  0.49600000  0.32310000  1.0 -0.5144391116
O  O8  1  0.06250000  0.50400000  0.82310000  1.0 -0.5144391116
O  O9  1  0.47170000  0.90210000  0.81770000  1.0 -0.5462928768
O  O10  1  0.52830000  0.09790000  0.31770000  1.0 -0.5462928768
O  O11  1  0.40210000  0.02830000  0.56770000  1.0 -0.5462928768
O  O12  1  0.59790000  0.97170000  0.06770000  1.0 -0.5462928768
O  O13  1  0.97170000  0.59790000  0.93230000  1.0 -0.5462928768
O  O14  1  0.02830000  0.40210000  0.43230000  1.0 -0.5462928768
O  O15  1  0.90210000  0.47170000  0.18230000  1.0 -0.5462928768
O  O16  1  0.09790000  0.52830000  0.68230000  1.0 -0.5462928768
O  O17  1  0.47658000  0.56216000  0.60540000  1.0 -0.6083384995
O  O18  1  0.52342000  0.43784000  0.10540000  1.0 -0.6083384995
O  O19  1  0.06216000  0.02342000  0.35540000  1.0 -0.6083384995
O  O20  1  0.93784000  0.97658000  0.85540000  1.0 -0.6083384995
O  O21  1  0.97658000  0.93784000  0.14460000  1.0 -0.6083384995
O  O22  1  0.02342000  0.06216000  0.64460000  1.0 -0.6083384995
O  O23  1  0.56216000  0.47658000  0.39460000  1.0 -0.6083384995
O  O24  1  0.43784000  0.52342000  0.89460000  1.0 -0.6083384995
O  O25  1  0.40320000  0.48630000  0.42870000  1.0 -0.4865421821
O  O26  1  0.59680000  0.51370000  0.92870000  1.0 -0.4865421821
O  O27  1  0.98630000  0.09680000  0.17870000  1.0 -0.4865421821
O  O28  1  0.01370000  0.90320000  0.67870000  1.0 -0.4865421821
O  O29  1  0.90320000  0.01370000  0.32130000  1.0 -0.4865421821
O  O30  1  0.09680000  0.98630000  0.82130000  1.0 -0.4865421821
O  O31  1  0.48630000  0.40320000  0.57130000  1.0 -0.4865421821
O  O32  1  0.51370000  0.59680000  0.07130000  1.0 -0.4865421821
O  O33  1  0.11400000  0.45500000  0.08920000  1.0 -0.4657786805
O  O34  1  0.88600000  0.54500000  0.58920000  1.0 -0.4657786805
O  O35  1  0.95500000  0.38600000  0.83920000  1.0 -0.4657786805
O  O36  1  0.04500000  0.61400000  0.33920000  1.0 -0.4657786805
O  O37  1  0.61400000  0.04500000  0.66080000  1.0 -0.4657786805
O  O38  1  0.38600000  0.95500000  0.16080000  1.0 -0.4657786805
O  O39  1  0.45500000  0.11400000  0.91080000  1.0 -0.4657786805
O  O40  1  0.54500000  0.88600000  0.41080000  1.0 -0.4657786805
O  O41  1  0.06203000  0.47183000  0.22240000  1.0 -0.6083384995
O  O42  1  0.93797000  0.52817000  0.72240000  1.0 -0.6083384995
O  O43  1  0.97183000  0.43797000  0.97240000  1.0 -0.6083384995
O  O44  1  0.02817000  0.56203000  0.47240000  1.0 -0.6083384995
O  O45  1  0.56203000  0.02817000  0.52760000  1.0 -0.6083384995
O  O46  1  0.43797000  0.97183000  0.02760000  1.0 -0.6083384995
O  O47  1  0.47183000  0.06203000  0.77760000  1.0 -0.6083384995
O  O48  1  0.52817000  0.93797000  0.27760000  1.0 -0.6083384995
O  O49  1  0.51640000  0.61150000  0.48100000  0.42 -0.0820460667
O  O50  1  0.48360000  0.38850000  0.98100000  0.42 -0.0820460667
O  O51  1  0.11150000  0.98360000  0.23100000  0.42 -0.0820460667
O  O52  1  0.88850000  0.01640000  0.73100000  0.42 -0.0820460667
O  O53  1  0.01640000  0.88850000  0.26900000  0.42 -0.0820460667
O  O54  1  0.98360000  0.11150000  0.76900000  0.42 -0.0820460667
O  O55  1  0.61150000  0.51640000  0.51900000  0.42 -0.0820460667
O  O56  1  0.38850000  0.48360000  0.01900000  0.42 -0.0820460667
O  O57  1  0.44020000  0.49360000  0.27780000  0.42 -0.1628035557
O  O58  1  0.55980000  0.50640000  0.77780000  0.42 -0.1628035557
O  O59  1  0.99360000  0.05980000  0.02780000  0.42 -0.166090683
O  O60  1  0.00640000  0.94020000  0.52780000  0.42 -0.1628035557
O  O61  1  0.94020000  0.00640000  0.47220000  0.42 -0.166090683
O  O62  1  0.05980000  0.99360000  0.97220000  0.42 -0.166090683
O  O63  1  0.49360000  0.44020000  0.72220000  0.42 -0.1628035557
O  O64  1  0.50640000  0.55980000  0.22220000  0.42 -0.1628035557
O  O65  1  0.48410000  0.61810000  0.47080000  0.58 -0.0745691955
O  O66  1  0.51590000  0.38190000  0.97080000  0.58 -0.0745691955
O  O67  1  0.11810000  0.01590000  0.22080000  0.58 -0.0745691955
O  O68  1  0.88190000  0.98410000  0.72080000  0.58 -0.0745691955
O  O69  1  0.98410000  0.88190000  0.27920000  0.58 -0.0745691955
O  O70  1  0.01590000  0.11810000  0.77920000  0.58 -0.0745691955
O  O71  1  0.61810000  0.48410000  0.52920000  0.58 -0.0745691955
O  O72  1  0.38190000  0.51590000  0.02920000  0.58 -0.0745691955
O  O73  1  0.43580000  0.44720000  0.29350000  0.58 -0.2423028779
O  O74  1  0.56420000  0.55280000  0.79350000  0.58 -0.2423028779
O  O75  1  0.94720000  0.06420000  0.04350000  0.58 -0.2423028779
O  O76  1  0.05280000  0.93580000  0.54350000  0.58 -0.2423028779
O  O77  1  0.93580000  0.05280000  0.45650000  0.58 -0.2423028779
O  O78  1  0.06420000  0.94720000  0.95650000  0.58 -0.2423028779
O  O79  1  0.44720000  0.43580000  0.70650000  0.58 -0.2423028779
O  O80  1  0.55280000  0.56420000  0.20650000  0.58 -0.2423028779
