# generated by PACMAN-DDEC6 charge (https://github.com/sxm13/PACMAN/)
data_structure
_chemical_formula_sum              "Ga8 H32 C64 O40"
_cell_length_a       14.932
_cell_length_b       14.932
_cell_length_c       11.956
_cell_angle_alpha    90
_cell_angle_beta     90
_cell_angle_gamma    90

_symmetry_space_group_name_H-M    "P 1"
_symmetry_Int_Tables_number       1

loop_
  _symmetry_equiv_pos_as_xyz
  'x, y, z'

loop_
  _atom_site_type_symbol
  _atom_site_label
  _atom_site_symmetry_multiplicity
  _atom_site_fract_x
  _atom_site_fract_y
  _atom_site_fract_z
  _atom_site_occupancy
  _atom_site_charge
Ga  Ga1       1.0  0.30727  0.30727  0.00000  0.9500 1.4361315348
Ga  Ga2       1.0  0.19273  0.19273  0.50000  0.9500 1.4361315348
Ga  Ga3       1.0  0.69273  0.80727  0.25000  0.9500 1.4361315348
Ga  Ga4       1.0  0.80727  0.69273  0.75000  0.9500 1.4361315348
Ga  Ga5       1.0  0.19273  0.30727  0.75000  0.9500 1.4361315348
Ga  Ga6       1.0  0.30727  0.19273  0.25000  0.9500 1.4361315348
Ga  Ga7       1.0  0.80727  0.80727  0.50000  0.9500 1.4361315348
Ga  Ga8       1.0  0.69273  0.69273  0.00000  0.9500 1.4361315348
H   H1        1.0  0.19160  0.25000  0.12500  1.0000 0.4030531772
H   H2        1.0  0.30840  0.25000  0.62500  1.0000 0.4030531772
H   H3        1.0  0.75000  0.69160  0.37500  1.0000 0.4030531772
H   H4        1.0  0.75000  0.80840  0.87500  1.0000 0.4030531772
H   H5        1.0  0.69160  0.75000  0.62500  1.0000 0.4030531772
H   H6        1.0  0.80840  0.75000  0.12500  1.0000 0.4030531772
H   H7        1.0  0.25000  0.19160  0.87500  1.0000 0.4030531772
H   H8        1.0  0.25000  0.30840  0.37500  1.0000 0.4030531772
H   H9        1.0  0.50000  0.00000  0.12450  1.0000 0.1398255654
H   H10       1.0  0.00000  0.50000  0.62450  1.0000 0.1398255654
H   H11       1.0  0.00000  0.00000  0.37450  1.0000 0.1398255654
H   H12       1.0  0.50000  0.50000  0.87450  1.0000 0.1398255654
H   H13       1.0  0.00000  0.00000  0.62550  1.0000 0.1398255654
H   H14       1.0  0.50000  0.50000  0.12550  1.0000 0.1398255654
H   H15       1.0  0.50000  0.00000  0.37550  1.0000 0.1398255654
H   H16       1.0  0.00000  0.50000  0.87550  1.0000 0.1398255654
H   H17       1.0  0.43750  0.11820  0.83140  1.0000 0.1192671635
H   H18       1.0  0.06250  0.38180  0.33140  1.0000 0.1192671635
H   H19       1.0  0.88180  0.93750  0.08140  1.0000 0.1192671635
H   H20       1.0  0.61820  0.56250  0.58140  1.0000 0.1192671635
H   H21       1.0  0.06250  0.11820  0.91860  1.0000 0.1192671635
H   H22       1.0  0.43750  0.38180  0.41860  1.0000 0.1192671635
H   H23       1.0  0.61820  0.93750  0.66860  1.0000 0.1192671635
H   H24       1.0  0.88180  0.56250  0.16860  1.0000 0.1192671635
H   H25       1.0  0.93750  0.61820  0.33140  1.0000 0.1192671635
H   H26       1.0  0.56250  0.88180  0.83140  1.0000 0.1192671635
H   H27       1.0  0.38180  0.43750  0.58140  1.0000 0.1192671635
H   H28       1.0  0.11820  0.06250  0.08140  1.0000 0.1192671635
H   H29       1.0  0.56250  0.61820  0.41860  1.0000 0.1192671635
H   H30       1.0  0.93750  0.88180  0.91860  1.0000 0.1192671635
H   H31       1.0  0.11820  0.43750  0.16860  1.0000 0.1192671635
H   H32       1.0  0.38180  0.06250  0.66860  1.0000 0.1192671635
C   C1        1.0  0.40780  0.14040  0.04790  1.0000 0.6028178312
C   C2        1.0  0.09220  0.35960  0.54790  1.0000 0.6028178312
C   C3        1.0  0.85960  0.90780  0.29790  1.0000 0.6028178312
C   C4        1.0  0.64040  0.59220  0.79790  1.0000 0.6028178312
C   C5        1.0  0.09220  0.14040  0.70210  1.0000 0.6028178312
C   C6        1.0  0.40780  0.35960  0.20210  1.0000 0.6028178312
C   C7        1.0  0.64040  0.90780  0.45210  1.0000 0.6028178312
C   C8        1.0  0.85960  0.59220  0.95210  1.0000 0.6028178312
C   C9        1.0  0.90780  0.64040  0.54790  1.0000 0.6028178312
C   C10       1.0  0.59220  0.85960  0.04790  1.0000 0.6028178312
C   C11       1.0  0.35960  0.40780  0.79790  1.0000 0.6028178312
C   C12       1.0  0.14040  0.09220  0.29790  1.0000 0.6028178312
C   C13       1.0  0.59220  0.64040  0.20210  1.0000 0.6028178312
C   C14       1.0  0.90780  0.85960  0.70210  1.0000 0.6028178312
C   C15       1.0  0.14040  0.40780  0.95210  1.0000 0.6028178312
C   C16       1.0  0.35960  0.09220  0.45210  1.0000 0.6028178312
C   C17       1.0  0.45460  0.06870  0.99070  1.0000 -0.0686651853
C   C18       1.0  0.04540  0.43130  0.49070  1.0000 -0.0686651853
C   C19       1.0  0.93130  0.95460  0.24070  1.0000 -0.0686651853
C   C20       1.0  0.56870  0.54540  0.74070  1.0000 -0.0686651853
C   C21       1.0  0.04540  0.06870  0.75930  1.0000 -0.0686651853
C   C22       1.0  0.45460  0.43130  0.25930  1.0000 -0.0686651853
C   C23       1.0  0.56870  0.95460  0.50930  1.0000 -0.0686651853
C   C24       1.0  0.93130  0.54540  0.00930  1.0000 -0.0686651853
C   C25       1.0  0.95460  0.56870  0.49070  1.0000 -0.0686651853
C   C26       1.0  0.54540  0.93130  0.99070  1.0000 -0.0686651853
C   C27       1.0  0.43130  0.45460  0.74070  1.0000 -0.0686651853
C   C28       1.0  0.06870  0.04540  0.24070  1.0000 -0.0686651853
C   C29       1.0  0.54540  0.56870  0.25930  1.0000 -0.0686651853
C   C30       1.0  0.95460  0.93130  0.75930  1.0000 -0.0686651853
C   C31       1.0  0.06870  0.45460  0.00930  1.0000 -0.0686651853
C   C32       1.0  0.43130  0.04540  0.50930  1.0000 -0.0686651853
C   C33       1.0  0.50000  0.00000  0.04670  1.0000 -0.0762447327
C   C34       1.0  0.00000  0.50000  0.54670  1.0000 -0.0762447327
C   C35       1.0  0.00000  0.00000  0.29670  1.0000 -0.0762447327
C   C36       1.0  0.50000  0.50000  0.79670  1.0000 -0.0762447327
C   C37       1.0  0.00000  0.00000  0.70330  1.0000 -0.0762447327
C   C38       1.0  0.50000  0.50000  0.20330  1.0000 -0.0762447327
C   C39       1.0  0.50000  0.00000  0.45330  1.0000 -0.0762447327
C   C40       1.0  0.00000  0.50000  0.95330  1.0000 -0.0762447327
C   C41       1.0  0.46060  0.06970  0.87080  1.0000 -0.1358588677
C   C42       1.0  0.03940  0.43030  0.37080  1.0000 -0.1358588677
C   C43       1.0  0.93030  0.96060  0.12080  1.0000 -0.1358588677
C   C44       1.0  0.56970  0.53940  0.62080  1.0000 -0.1358588677
C   C45       1.0  0.03940  0.06970  0.87920  1.0000 -0.1358588677
C   C46       1.0  0.46060  0.43030  0.37920  1.0000 -0.1358588677
C   C47       1.0  0.56970  0.96060  0.62920  1.0000 -0.1358588677
C   C48       1.0  0.93030  0.53940  0.12920  1.0000 -0.1358588677
C   C49       1.0  0.96060  0.56970  0.37080  1.0000 -0.1358588677
C   C50       1.0  0.53940  0.93030  0.87080  1.0000 -0.1358588677
C   C51       1.0  0.43030  0.46060  0.62080  1.0000 -0.1358588677
C   C52       1.0  0.06970  0.03940  0.12080  1.0000 -0.1358588677
C   C53       1.0  0.53940  0.56970  0.37920  1.0000 -0.1358588677
C   C54       1.0  0.96060  0.93030  0.87920  1.0000 -0.1358588677
C   C55       1.0  0.06970  0.46060  0.12920  1.0000 -0.1358588677
C   C56       1.0  0.43030  0.03940  0.62920  1.0000 -0.1358588677
C   C57       1.0  0.50000  0.00000  0.81290  1.0000 0.0754331478
C   C58       1.0  0.00000  0.50000  0.31290  1.0000 0.0754331478
C   C59       1.0  0.00000  0.00000  0.06290  1.0000 0.0744320878
C   C60       1.0  0.50000  0.50000  0.56290  1.0000 0.0754331478
C   C61       1.0  0.00000  0.00000  0.93710  1.0000 0.0744320878
C   C62       1.0  0.50000  0.50000  0.43710  1.0000 0.0754331478
C   C63       1.0  0.50000  0.00000  0.68710  1.0000 0.0754331478
C   C64       1.0  0.00000  0.50000  0.18710  1.0000 0.0754331478
O   O1        1.0  0.39980  0.21340  0.99620  1.0000 -0.5519149772
O   O2        1.0  0.10020  0.28660  0.49620  1.0000 -0.5519149772
O   O3        1.0  0.78660  0.89980  0.24620  1.0000 -0.5519149772
O   O4        1.0  0.71340  0.60020  0.74620  1.0000 -0.5519149772
O   O5        1.0  0.10020  0.21340  0.75380  1.0000 -0.5519149772
O   O6        1.0  0.39980  0.28660  0.25380  1.0000 -0.5519149772
O   O7        1.0  0.71340  0.89980  0.50380  1.0000 -0.5519149772
O   O8        1.0  0.78660  0.60020  0.00380  1.0000 -0.5519149772
O   O9        1.0  0.89980  0.71340  0.49620  1.0000 -0.5519149772
O   O10       1.0  0.60020  0.78660  0.99620  1.0000 -0.5519149772
O   O11       1.0  0.28660  0.39980  0.74620  1.0000 -0.5519149772
O   O12       1.0  0.21340  0.10020  0.24620  1.0000 -0.5519149772
O   O13       1.0  0.60020  0.71340  0.25380  1.0000 -0.5519149772
O   O14       1.0  0.89980  0.78660  0.75380  1.0000 -0.5519149772
O   O15       1.0  0.21340  0.39980  0.00380  1.0000 -0.5519149772
O   O16       1.0  0.28660  0.10020  0.50380  1.0000 -0.5519149772
O   O17       1.0  0.24680  0.25000  0.12500  1.0000 -0.867119836
O   O18       1.0  0.25320  0.25000  0.62500  1.0000 -0.867119836
O   O19       1.0  0.75000  0.74680  0.37500  1.0000 -0.867119836
O   O20       1.0  0.75000  0.75320  0.87500  1.0000 -0.867119836
O   O21       1.0  0.74680  0.75000  0.62500  1.0000 -0.867119836
O   O22       1.0  0.75320  0.75000  0.12500  1.0000 -0.867119836
O   O23       1.0  0.25000  0.24680  0.87500  1.0000 -0.867119836
O   O24       1.0  0.25000  0.25320  0.37500  1.0000 -0.867119836
O   O25       1.0  0.37830  0.12090  0.14330  1.0000 -0.5210602603
O   O26       1.0  0.12170  0.37910  0.64330  1.0000 -0.5210602603
O   O27       1.0  0.87910  0.87830  0.39330  1.0000 -0.5210602603
O   O28       1.0  0.62090  0.62170  0.89330  1.0000 -0.5210602603
O   O29       1.0  0.12170  0.12090  0.60670  1.0000 -0.5210602603
O   O30       1.0  0.37830  0.37910  0.10670  1.0000 -0.5210602603
O   O31       1.0  0.62090  0.87830  0.35670  1.0000 -0.5210602603
O   O32       1.0  0.87910  0.62170  0.85670  1.0000 -0.5210602603
O   O33       1.0  0.87830  0.62090  0.64330  1.0000 -0.5210602603
O   O34       1.0  0.62170  0.87910  0.14330  1.0000 -0.5210602603
O   O35       1.0  0.37910  0.37830  0.89330  1.0000 -0.5210602603
O   O36       1.0  0.12090  0.12170  0.39330  1.0000 -0.5210602603
O   O37       1.0  0.62170  0.62090  0.10670  1.0000 -0.5210602603
O   O38       1.0  0.87830  0.87910  0.60670  1.0000 -0.5210602603
O   O39       1.0  0.12090  0.37830  0.85670  1.0000 -0.5210602603
O   O40       1.0  0.37910  0.12170  0.35670  1.0000 -0.5210602603
  Fe  Fe1       1.0  0.30727  0.30727  0.00000  0.0500
  Fe  Fe2       1.0  0.19273  0.19273  0.50000  0.0500
  Fe  Fe3       1.0  0.69273  0.80727  0.25000  0.0500
  Fe  Fe4       1.0  0.80727  0.69273  0.75000  0.0500
  Fe  Fe5       1.0  0.19273  0.30727  0.75000  0.0500
  Fe  Fe6       1.0  0.30727  0.19273  0.25000  0.0500
  Fe  Fe7       1.0  0.80727  0.80727  0.50000  0.0500
  Fe  Fe8       1.0  0.69273  0.69273  0.00000  0.0500
