# DDEC6 charges by PACMAN v1.1 (https://github.com/mtap-research/PACMAN-charge/)
data_2019[Zn][sra]3[ASR]1
_chemical_formula_sum              "Zn8 H52 C104 N24 O40"
_cell_length_a       12.717
_cell_length_b       16.73
_cell_length_c       27.427
_cell_angle_alpha    90
_cell_angle_beta     90
_cell_angle_gamma    90

_symmetry_space_group_name_H-M    "P 1"
_symmetry_Int_Tables_number       1

loop_
  _symmetry_equiv_pos_as_xyz
  'x, y, z'

loop_
  _atom_site_type_symbol
  _atom_site_label
  _atom_site_symmetry_multiplicity
  _atom_site_fract_x
  _atom_site_fract_y
  _atom_site_fract_z
  _atom_site_occupancy
  _atom_site_charge
Zn  Zn1       1.0  0.25716  0.42411  0.88484  1.0000 0.983975706
Zn  Zn2       1.0  0.07003  0.56333  0.90006  1.0000 0.9540578102
Zn  Zn3       1.0  0.24284  0.57589  0.38484  1.0000 0.983975706
Zn  Zn4       1.0  0.42997  0.43667  0.40006  1.0000 0.9540578102
Zn  Zn5       1.0  0.74284  0.92411  0.61516  1.0000 0.983975706
Zn  Zn6       1.0  0.92997  0.06333  0.59994  1.0000 0.9540578102
Zn  Zn7       1.0  0.75716  0.07589  0.11516  1.0000 0.983975706
Zn  Zn8       1.0  0.57003  0.93667  0.09994  1.0000 0.9540578102
H   H1        1.0  0.86860  0.62240  0.98390  1.0000 0.3074903612
H   H2        1.0  0.77570  0.37890  0.09990  1.0000 0.3074903612
H   H3        1.0  0.60370  0.66940  0.13160  1.0000 0.3038917755
H   H4        1.0  0.93430  0.45310  0.00800  1.0000 0.1383818448
H   H5        1.0  0.07310  0.24420  0.97550  1.0000 0.1383818448
H   H6        1.0  0.97750  0.18490  0.03770  1.0000 0.1383818448
H   H7        1.0  0.98330  0.86050  0.93290  1.0000 0.1127404695
H   H8        1.0  0.90950  0.95270  0.98660  1.0000 0.1327339945
H   H9        1.0  0.76350  0.77190  0.05670  1.0000 0.1383818448
H   H10       1.0  0.66000  0.49180  0.19260  1.0000 0.1383818448
H   H11       1.0  0.46150  0.67760  0.17980  1.0000 0.1383818448
H   H12       1.0  0.57670  0.45430  0.26360  1.0000 0.1327339945
H   H13       1.0  0.37880  0.63890  0.25230  1.0000 0.1383818448
H   H14       1.0  0.63140  0.37760  0.48390  1.0000 0.3074903612
H   H15       1.0  0.72430  0.62110  0.59990  1.0000 0.3074903612
H   H16       1.0  0.89630  0.33060  0.63160  1.0000 0.3038917755
H   H17       1.0  0.56570  0.54690  0.50800  1.0000 0.1383818448
H   H18       1.0  0.42690  0.75580  0.47550  1.0000 0.1383818448
H   H19       1.0  0.52250  0.81510  0.53770  1.0000 0.1383818448
H   H20       1.0  0.51670  0.13950  0.43290  1.0000 0.1127404695
H   H21       1.0  0.59050  0.04730  0.48660  1.0000 0.1327339945
H   H22       1.0  0.73650  0.22810  0.55670  1.0000 0.1383818448
H   H23       1.0  0.84000  0.50820  0.69260  1.0000 0.1383818448
H   H24       1.0  0.03850  0.32240  0.67980  1.0000 0.1383818448
H   H25       1.0  0.92330  0.54570  0.76360  1.0000 0.1327339945
H   H26       1.0  0.12120  0.36110  0.75230  1.0000 0.1383818448
H   H27       1.0  0.13140  0.12240  0.51610  1.0000 0.3074903612
H   H28       1.0  0.22430  0.87890  0.40010  1.0000 0.3074903612
H   H29       1.0  0.39630  0.16940  0.36840  1.0000 0.3038917755
H   H30       1.0  0.06570  0.95310  0.49200  1.0000 0.1383818448
H   H31       1.0  0.92690  0.74420  0.52450  1.0000 0.1383818448
H   H32       1.0  0.02250  0.68490  0.46230  1.0000 0.1383818448
H   H33       1.0  0.01670  0.36050  0.56710  1.0000 0.1127404695
H   H34       1.0  0.09050  0.45270  0.51340  1.0000 0.1327339945
H   H35       1.0  0.23650  0.27190  0.44330  1.0000 0.1383818448
H   H36       1.0  0.34000  0.99180  0.30740  1.0000 0.1383818448
H   H37       1.0  0.53850  0.17760  0.32020  1.0000 0.1383818448
H   H38       1.0  0.42330  0.95430  0.23640  1.0000 0.1327339945
H   H39       1.0  0.62120  0.13890  0.24770  1.0000 0.1383818448
H   H40       1.0  0.36860  0.87760  0.01610  1.0000 0.3074903612
H   H41       1.0  0.27570  0.12110  0.90010  1.0000 0.3074903612
H   H42       1.0  0.10370  0.83060  0.86840  1.0000 0.3038917755
H   H43       1.0  0.43430  0.04690  0.99200  1.0000 0.1383818448
H   H44       1.0  0.57310  0.25580  0.02450  1.0000 0.1383818448
H   H45       1.0  0.47750  0.31510  0.96230  1.0000 0.1383818448
H   H46       1.0  0.48330  0.63950  0.06710  1.0000 0.1127404695
H   H47       1.0  0.40950  0.54730  0.01340  1.0000 0.1327339945
H   H48       1.0  0.26350  0.72810  0.94330  1.0000 0.1383818448
H   H49       1.0  0.16000  0.00820  0.80740  1.0000 0.1383818448
H   H50       1.0  0.96150  0.82240  0.82020  1.0000 0.1383818448
H   H51       1.0  0.07670  0.04570  0.73640  1.0000 0.1327339945
H   H52       1.0  0.87880  0.86110  0.74770  1.0000 0.1383818448
C   C1        1.0  0.79450  0.60790  0.04320  1.0000 0.528234986
C   C2        1.0  0.69050  0.58700  0.10670  1.0000 0.5216709798
C   C3        1.0  0.78380  0.48480  0.07630  1.0000 0.528234986
C   C4        1.0  0.88270  0.36220  0.05050  1.0000 0.2132722636
C   C5        1.0  0.07610  0.39940  0.94930  1.0000 0.6124814575
C   C6        1.0  0.94250  0.39880  0.01410  1.0000 -0.1697755853
C   C7        1.0  0.01450  0.35460  0.98670  1.0000 -0.0102916099
C   C8        1.0  0.02700  0.27420  0.99440  1.0000 -0.1033757801
C   C9        1.0  0.96810  0.23910  0.03150  1.0000 -0.0816200028
C   C10       1.0  0.89630  0.28090  0.05970  1.0000 -0.1070741868
C   C11       1.0  0.83820  0.23680  0.09980  1.0000 0.6000121658
C   C12       1.0  0.85630  0.73390  0.00080  1.0000 0.2329927285
C   C13       1.0  0.92040  0.76110  0.96258  1.0000 -0.123347486
C   C14       1.0  0.93990  0.84260  0.95800  1.0000 -0.0932539112
C   C15       1.0  0.89590  0.89840  0.99020  1.0000 -0.1070741868
C   C16       1.0  0.83040  0.87030  0.02810  1.0000 -0.0102916099
C   C17       1.0  0.80920  0.78960  0.03253  1.0000 -0.1697755853
C   C18       1.0  0.77960  0.92700  0.06179  1.0000 0.5876896059
C   C19       1.0  0.97460  0.70830  0.92682  1.0000 0.5876896059
C   C20       1.0  0.57010  0.58860  0.17954  1.0000 0.2385036027
C   C21       1.0  0.60400  0.52180  0.20450  1.0000 -0.1697755853
C   C22       1.0  0.48520  0.63310  0.19690  1.0000 -0.1905396605
C   C23       1.0  0.55410  0.49980  0.24710  1.0000 -0.068050115
C   C24       1.0  0.43570  0.60980  0.24050  1.0000 -0.068050115
C   C25       1.0  0.47100  0.54400  0.26595  1.0000 -0.0484895396
C   C26       1.0  0.42220  0.52150  0.31317  1.0000 0.6000121658
C   C27       1.0  0.70550  0.39210  0.54320  1.0000 0.528234986
C   C28       1.0  0.80950  0.41300  0.60670  1.0000 0.5216709798
C   C29       1.0  0.71620  0.51520  0.57630  1.0000 0.528234986
C   C30       1.0  0.61730  0.63780  0.55050  1.0000 0.2132722636
C   C31       1.0  0.42390  0.60060  0.44930  1.0000 0.6124814575
C   C32       1.0  0.55750  0.60120  0.51410  1.0000 -0.1697755853
C   C33       1.0  0.48550  0.64540  0.48670  1.0000 -0.0102916099
C   C34       1.0  0.47300  0.72580  0.49440  1.0000 -0.1033757801
C   C35       1.0  0.53190  0.76090  0.53150  1.0000 -0.0816200028
C   C36       1.0  0.60370  0.71910  0.55970  1.0000 -0.1070741868
C   C37       1.0  0.66180  0.76320  0.59980  1.0000 0.6000121658
C   C38       1.0  0.64370  0.26610  0.50080  1.0000 0.2329927285
C   C39       1.0  0.57960  0.23890  0.46258  1.0000 -0.123347486
C   C40       1.0  0.56010  0.15740  0.45800  1.0000 -0.0932539112
C   C41       1.0  0.60410  0.10160  0.49020  1.0000 -0.1070741868
C   C42       1.0  0.66960  0.12970  0.52810  1.0000 -0.0102916099
C   C43       1.0  0.69080  0.21040  0.53253  1.0000 -0.1697755853
C   C44       1.0  0.72040  0.07300  0.56179  1.0000 0.5876896059
C   C45       1.0  0.52540  0.29170  0.42682  1.0000 0.5876896059
C   C46       1.0  0.92990  0.41140  0.67954  1.0000 0.2385036027
C   C47       1.0  0.89600  0.47820  0.70450  1.0000 -0.1697755853
C   C48       1.0  0.01480  0.36690  0.69690  1.0000 -0.1905396605
C   C49       1.0  0.94590  0.50020  0.74710  1.0000 -0.068050115
C   C50       1.0  0.06430  0.39020  0.74050  1.0000 -0.068050115
C   C51       1.0  0.02900  0.45600  0.76595  1.0000 -0.0484895396
C   C52       1.0  0.07780  0.47850  0.81317  1.0000 0.6000121658
C   C53       1.0  0.20550  0.10790  0.45680  1.0000 0.528234986
C   C54       1.0  0.30950  0.08700  0.39330  1.0000 0.5216709798
C   C55       1.0  0.21620  0.98480  0.42370  1.0000 0.528234986
C   C56       1.0  0.11730  0.86220  0.44950  1.0000 0.2132722636
C   C57       1.0  0.92390  0.89940  0.55070  1.0000 0.6124814575
C   C58       1.0  0.05750  0.89880  0.48590  1.0000 -0.1697755853
C   C59       1.0  0.98550  0.85460  0.51330  1.0000 -0.0102916099
C   C60       1.0  0.97300  0.77420  0.50560  1.0000 -0.1033757801
C   C61       1.0  0.03190  0.73910  0.46850  1.0000 -0.0816200028
C   C62       1.0  0.10370  0.78090  0.44030  1.0000 -0.1070741868
C   C63       1.0  0.16180  0.73680  0.40020  1.0000 0.6000121658
C   C64       1.0  0.14370  0.23390  0.49920  1.0000 0.2329927285
C   C65       1.0  0.07960  0.26110  0.53742  1.0000 -0.123347486
C   C66       1.0  0.06010  0.34260  0.54200  1.0000 -0.0932539112
C   C67       1.0  0.10410  0.39840  0.50980  1.0000 -0.1070741868
C   C68       1.0  0.16960  0.37030  0.47190  1.0000 -0.0102916099
C   C69       1.0  0.19080  0.28960  0.46747  1.0000 -0.1697755853
C   C70       1.0  0.22040  0.42700  0.43821  1.0000 0.5876896059
C   C71       1.0  0.02540  0.20830  0.57318  1.0000 0.5876896059
C   C72       1.0  0.42990  0.08860  0.32046  1.0000 0.2385036027
C   C73       1.0  0.39600  0.02180  0.29550  1.0000 -0.1697755853
C   C74       1.0  0.51480  0.13310  0.30310  1.0000 -0.1905396605
C   C75       1.0  0.44590  0.99980  0.25290  1.0000 -0.068050115
C   C76       1.0  0.56430  0.10980  0.25950  1.0000 -0.068050115
C   C77       1.0  0.52900  0.04400  0.23405  1.0000 -0.0484895396
C   C78       1.0  0.57780  0.02150  0.18683  1.0000 0.6000121658
C   C79       1.0  0.29450  0.89210  0.95680  1.0000 0.528234986
C   C80       1.0  0.19050  0.91300  0.89330  1.0000 0.5216709798
C   C81       1.0  0.28380  0.01520  0.92370  1.0000 0.528234986
C   C82       1.0  0.38270  0.13780  0.94950  1.0000 0.2132722636
C   C83       1.0  0.57610  0.10060  0.05070  1.0000 0.6124814575
C   C84       1.0  0.44250  0.10120  0.98590  1.0000 -0.1697755853
C   C85       1.0  0.51450  0.14540  0.01330  1.0000 -0.0102916099
C   C86       1.0  0.52700  0.22580  0.00560  1.0000 -0.1033757801
C   C87       1.0  0.46810  0.26090  0.96850  1.0000 -0.0816200028
C   C88       1.0  0.39630  0.21910  0.94030  1.0000 -0.1070741868
C   C89       1.0  0.33820  0.26320  0.90020  1.0000 0.6000121658
C   C90       1.0  0.35630  0.76610  0.99920  1.0000 0.2329927285
C   C91       1.0  0.42040  0.73890  0.03742  1.0000 -0.123347486
C   C92       1.0  0.43990  0.65740  0.04200  1.0000 -0.0932539112
C   C93       1.0  0.39590  0.60160  0.00980  1.0000 -0.1070741868
C   C94       1.0  0.33040  0.62970  0.97190  1.0000 -0.0102916099
C   C95       1.0  0.30920  0.71040  0.96747  1.0000 -0.1697755853
C   C96       1.0  0.27960  0.57300  0.93821  1.0000 0.5876896059
C   C97       1.0  0.47460  0.79170  0.07318  1.0000 0.5876896059
C   C98       1.0  0.07010  0.91140  0.82046  1.0000 0.2385036027
C   C99       1.0  0.10400  0.97820  0.79550  1.0000 -0.1697755853
C   C100      1.0  0.98520  0.86690  0.80310  1.0000 -0.1905396605
C   C101      1.0  0.05410  0.00020  0.75290  1.0000 -0.068050115
C   C102      1.0  0.93570  0.89020  0.75950  1.0000 -0.068050115
C   C103      1.0  0.97100  0.95600  0.73405  1.0000 -0.0484895396
C   C104      1.0  0.92220  0.97850  0.68683  1.0000 0.6000121658
N   N1        1.0  0.71570  0.50930  0.11052  1.0000 -0.5018940146
N   N2        1.0  0.82510  0.53050  0.04139  1.0000 -0.5018940146
N   N3        1.0  0.72760  0.64000  0.07390  1.0000 -0.4906141894
N   N4        1.0  0.84240  0.65100  0.00692  1.0000 -0.3391658688
N   N5        1.0  0.80930  0.40620  0.07836  1.0000 -0.3391658688
N   N6        1.0  0.62010  0.62070  0.13813  1.0000 -0.3256505752
N   N7        1.0  0.78430  0.49070  0.61052  1.0000 -0.5018940146
N   N8        1.0  0.67490  0.46950  0.54139  1.0000 -0.5018940146
N   N9        1.0  0.77240  0.36000  0.57390  1.0000 -0.4906141894
N   N10       1.0  0.65760  0.34900  0.50692  1.0000 -0.3391658688
N   N11       1.0  0.69070  0.59380  0.57836  1.0000 -0.3391658688
N   N12       1.0  0.87990  0.37930  0.63813  1.0000 -0.3256505752
N   N13       1.0  0.28430  0.00930  0.38948  1.0000 -0.5018940146
N   N14       1.0  0.17490  0.03050  0.45861  1.0000 -0.5018940146
N   N15       1.0  0.27240  0.14000  0.42610  1.0000 -0.4906141894
N   N16       1.0  0.15760  0.15100  0.49308  1.0000 -0.3391658688
N   N17       1.0  0.19070  0.90620  0.42164  1.0000 -0.3391658688
N   N18       1.0  0.37990  0.12070  0.36187  1.0000 -0.3256505752
N   N19       1.0  0.21570  0.99070  0.88948  1.0000 -0.5018940146
N   N20       1.0  0.32510  0.96950  0.95861  1.0000 -0.5018940146
N   N21       1.0  0.22760  0.86000  0.92610  1.0000 -0.4906141894
N   N22       1.0  0.34240  0.84900  0.99308  1.0000 -0.3391658688
N   N23       1.0  0.30930  0.09380  0.92164  1.0000 -0.3391658688
N   N24       1.0  0.12010  0.87930  0.86187  1.0000 -0.3256505752
O   O1        1.0  0.15160  0.36580  0.92846  1.0000 -0.4906141894
O   O2        1.0  0.04780  0.47090  0.94147  1.0000 -0.568205374
O   O3        1.0  0.77270  0.27260  0.12538  1.0000 -0.5283738847
O   O4        1.0  0.85980  0.16200  0.10333  1.0000 -0.5518226798
O   O5        1.0  0.97580  0.63200  0.93618  1.0000 -0.5582010324
O   O6        1.0  0.01900  0.73560  0.89032  1.0000 -0.5399775232
O   O7        1.0  0.71090  0.89670  0.09212  1.0000 -0.5880154247
O   O8        1.0  0.80470  0.99910  0.06153  1.0000 -0.5184021319
O   O9        1.0  0.45820  0.45900  0.33415  1.0000 -0.5399775232
O   O10       1.0  0.35210  0.56570  0.33050  1.0000 -0.5518226798
O   O11       1.0  0.34840  0.63420  0.42846  1.0000 -0.4906141894
O   O12       1.0  0.45220  0.52910  0.44147  1.0000 -0.568205374
O   O13       1.0  0.72730  0.72740  0.62538  1.0000 -0.5283738847
O   O14       1.0  0.64020  0.83800  0.60333  1.0000 -0.5518226798
O   O15       1.0  0.52420  0.36800  0.43618  1.0000 -0.5582010324
O   O16       1.0  0.48100  0.26440  0.39032  1.0000 -0.5399775232
O   O17       1.0  0.78910  0.10330  0.59212  1.0000 -0.5880154247
O   O18       1.0  0.69530  0.00090  0.56153  1.0000 -0.5184021319
O   O19       1.0  0.04180  0.54100  0.83415  1.0000 -0.5399775232
O   O20       1.0  0.14790  0.43430  0.83050  1.0000 -0.5518226798
O   O21       1.0  0.84840  0.86580  0.57154  1.0000 -0.4906141894
O   O22       1.0  0.95220  0.97090  0.55853  1.0000 -0.568205374
O   O23       1.0  0.22730  0.77260  0.37462  1.0000 -0.5283738847
O   O24       1.0  0.14020  0.66200  0.39667  1.0000 -0.5518226798
O   O25       1.0  0.02420  0.13200  0.56382  1.0000 -0.5582010324
O   O26       1.0  0.98100  0.23560  0.60968  1.0000 -0.5399775232
O   O27       1.0  0.28910  0.39670  0.40788  1.0000 -0.5880154247
O   O28       1.0  0.19530  0.49910  0.43847  1.0000 -0.5184021319
O   O29       1.0  0.54180  0.95900  0.16585  1.0000 -0.5399775232
O   O30       1.0  0.64790  0.06570  0.16950  1.0000 -0.5518226798
O   O31       1.0  0.65160  0.13420  0.07154  1.0000 -0.4906141894
O   O32       1.0  0.54780  0.02910  0.05853  1.0000 -0.568205374
O   O33       1.0  0.27270  0.22740  0.87462  1.0000 -0.5283738847
O   O34       1.0  0.35980  0.33800  0.89667  1.0000 -0.5518226798
O   O35       1.0  0.47580  0.86800  0.06382  1.0000 -0.5582010324
O   O36       1.0  0.51900  0.76440  0.10968  1.0000 -0.5399775232
O   O37       1.0  0.21090  0.60330  0.90788  1.0000 -0.5880154247
O   O38       1.0  0.30470  0.50090  0.93847  1.0000 -0.5184021319
O   O39       1.0  0.95820  0.04100  0.66585  1.0000 -0.5399775232
O   O40       1.0  0.85210  0.93430  0.66950  1.0000 -0.5518226798
