# DDEC6 charges by PACMAN v1.1 (https://github.com/mtap-research/PACMAN-charge/)
data_ja202154j_si_003_FSR_pacman
_symmetry_space_group_name_H-M   'P 1'
_cell_length_a   17.10730000
_cell_length_b   17.10730000
_cell_length_c   17.10730000
_cell_angle_alpha   90.00000000
_cell_angle_beta   90.00000000
_cell_angle_gamma   90.00000000
_symmetry_Int_Tables_number   1
_chemical_formula_structural   ZnH10(C2N)4
_chemical_formula_sum   'Zn12 H120 C96 N48'
_cell_volume   5006.61751317
_cell_formula_units_Z   12
loop_
 _symmetry_equiv_pos_site_id
 _symmetry_equiv_pos_as_xyz
  1  'x, y, z'
loop_
 _atom_site_type_symbol
 _atom_site_label
 _atom_site_symmetry_multiplicity
 _atom_site_fract_x
 _atom_site_fract_y
 _atom_site_fract_z
 _atom_site_occupancy
 _atom_site_charge
Zn  Zn1  1  0.50000000  0.00000000  0.75000000  1.0 0.6047873605
Zn  Zn2  1  0.50000000  0.00000000  0.25000000  1.0 0.6047873605
Zn  Zn3  1  0.75000000  0.50000000  0.00000000  1.0 0.6062534969
Zn  Zn4  1  0.25000000  0.50000000  0.00000000  1.0 0.6062534969
Zn  Zn5  1  0.00000000  0.75000000  0.50000000  1.0 0.6047873605
Zn  Zn6  1  0.00000000  0.25000000  0.50000000  1.0 0.6047873605
Zn  Zn7  1  0.00000000  0.50000000  0.75000000  1.0 0.6047873605
Zn  Zn8  1  0.00000000  0.50000000  0.25000000  1.0 0.6047873605
Zn  Zn9  1  0.50000000  0.75000000  0.00000000  1.0 0.6062534969
Zn  Zn10  1  0.50000000  0.25000000  0.00000000  1.0 0.6062534969
Zn  Zn11  1  0.75000000  0.00000000  0.50000000  1.0 0.6062534969
Zn  Zn12  1  0.25000000  0.00000000  0.50000000  1.0 0.6047873605
H  H1  1  0.41137000  0.84514000  0.69119000  1.0 0.1273326764
H  H5  1  0.91137000  0.34514000  0.19119000  1.0 0.1273326764
H  H9  1  0.58863000  0.15486000  0.69119000  1.0 0.1273326764
H  H13  1  0.08863000  0.65486000  0.19119000  1.0 0.1273326764
H  H17  1  0.58863000  0.84514000  0.30881000  1.0 0.1273326764
H  H21  1  0.08863000  0.34514000  0.80881000  1.0 0.1273326764
H  H25  1  0.41137000  0.15486000  0.30881000  1.0 0.1273326764
H  H29  1  0.91137000  0.65486000  0.80881000  1.0 0.1273326764
H  H33  1  0.69119000  0.41137000  0.84514000  1.0 0.1273326764
H  H37  1  0.19119000  0.91137000  0.34514000  1.0 0.1273326764
H  H41  1  0.69119000  0.58863000  0.15486000  1.0 0.1273326764
H  H45  1  0.19119000  0.08863000  0.65486000  1.0 0.1273326764
H  H49  1  0.30881000  0.58863000  0.84514000  1.0 0.1273326764
H  H53  1  0.80881000  0.08863000  0.34514000  1.0 0.1273326764
H  H57  1  0.30881000  0.41137000  0.15486000  1.0 0.1273326764
H  H61  1  0.80881000  0.91137000  0.65486000  1.0 0.1273326764
H  H65  1  0.84514000  0.69119000  0.41137000  1.0 0.1273326764
H  H69  1  0.34514000  0.19119000  0.91137000  1.0 0.1273326764
H  H73  1  0.15486000  0.69119000  0.58863000  1.0 0.1273326764
H  H77  1  0.65486000  0.19119000  0.08863000  1.0 0.1273326764
H  H81  1  0.84514000  0.30881000  0.58863000  1.0 0.1273326764
H  H85  1  0.34514000  0.80881000  0.08863000  1.0 0.1273326764
H  H89  1  0.15486000  0.30881000  0.41137000  1.0 0.1273326764
H  H93  1  0.65486000  0.80881000  0.91137000  1.0 0.1273326764
H  H97  1  0.84514000  0.41137000  0.69119000  1.0 0.1273326764
H  H101  1  0.34514000  0.91137000  0.19119000  1.0 0.1273326764
H  H105  1  0.15486000  0.58863000  0.69119000  1.0 0.1273326764
H  H109  1  0.65486000  0.08863000  0.19119000  1.0 0.1273326764
H  H113  1  0.84514000  0.58863000  0.30881000  1.0 0.1273326764
H  H117  1  0.34514000  0.08863000  0.80881000  1.0 0.1273326764
H  H121  1  0.15486000  0.41137000  0.30881000  1.0 0.1273326764
H  H125  1  0.65486000  0.91137000  0.80881000  1.0 0.1273326764
H  H129  1  0.41137000  0.69119000  0.84514000  1.0 0.1273326764
H  H133  1  0.91137000  0.19119000  0.34514000  1.0 0.1273326764
H  H137  1  0.58863000  0.69119000  0.15486000  1.0 0.1273326764
H  H141  1  0.08863000  0.19119000  0.65486000  1.0 0.1273326764
H  H145  1  0.58863000  0.30881000  0.84514000  1.0 0.1273326764
H  H149  1  0.08863000  0.80881000  0.34514000  1.0 0.1273326764
H  H153  1  0.41137000  0.30881000  0.15486000  1.0 0.1273326764
H  H157  1  0.91137000  0.80881000  0.65486000  1.0 0.1273326764
H  H161  1  0.69119000  0.84514000  0.41137000  1.0 0.1273326764
H  H165  1  0.19119000  0.34514000  0.91137000  1.0 0.1273326764
H  H169  1  0.69119000  0.15486000  0.58863000  1.0 0.1273326764
H  H173  1  0.19119000  0.65486000  0.08863000  1.0 0.1273326764
H  H177  1  0.30881000  0.84514000  0.58863000  1.0 0.1273326764
H  H181  1  0.80881000  0.34514000  0.08863000  1.0 0.1273326764
H  H185  1  0.30881000  0.15486000  0.41137000  1.0 0.1273326764
H  H189  1  0.80881000  0.65486000  0.91137000  1.0 0.1273326764
H  H2  1  0.33784000  0.11461000  0.58745000  0.5 0.0507679349
H  H3  1  0.36681000  0.12035000  0.67420000  0.5 0.0507679349
H  H4  1  0.42721000  0.10763000  0.60647000  0.5 0.0639385985
H  H6  1  0.83784000  0.61461000  0.08745000  0.5 0.0507679349
H  H7  1  0.86681000  0.62035000  0.17420000  0.5 0.0507679349
H  H8  1  0.92721000  0.60763000  0.10647000  0.5 0.0639385985
H  H10  1  0.66216000  0.88539000  0.58745000  0.5 0.0507679349
H  H11  1  0.63319000  0.87965000  0.67420000  0.5 0.0507679349
H  H12  1  0.57279000  0.89237000  0.60647000  0.5 0.0639385985
H  H14  1  0.16216000  0.38539000  0.08745000  0.5 0.0507679349
H  H15  1  0.13319000  0.37965000  0.17420000  0.5 0.0507679349
H  H16  1  0.07279000  0.39237000  0.10647000  0.5 0.0639385985
H  H18  1  0.66216000  0.11461000  0.41255000  0.5 0.0507679349
H  H19  1  0.63319000  0.12035000  0.32580000  0.5 0.0507679349
H  H20  1  0.57279000  0.10763000  0.39353000  0.5 0.0639385985
H  H22  1  0.16216000  0.61461000  0.91255000  0.5 0.0507679349
H  H23  1  0.13319000  0.62035000  0.82580000  0.5 0.0507679349
H  H24  1  0.07279000  0.60763000  0.89353000  0.5 0.0639385985
H  H26  1  0.33784000  0.88539000  0.41255000  0.5 0.0507679349
H  H27  1  0.36681000  0.87965000  0.32580000  0.5 0.0507679349
H  H28  1  0.42721000  0.89237000  0.39353000  0.5 0.0639385985
H  H30  1  0.83784000  0.38539000  0.91255000  0.5 0.0507679349
H  H31  1  0.86681000  0.37965000  0.82580000  0.5 0.0507679349
H  H32  1  0.92721000  0.39237000  0.89353000  0.5 0.0639385985
H  H34  1  0.58745000  0.33784000  0.11461000  0.5 0.0507679349
H  H35  1  0.67420000  0.36681000  0.12035000  0.5 0.0507679349
H  H36  1  0.60647000  0.42721000  0.10763000  0.5 0.0639385985
H  H38  1  0.08745000  0.83784000  0.61461000  0.5 0.0507679349
H  H39  1  0.17420000  0.86681000  0.62035000  0.5 0.0507679349
H  H40  1  0.10647000  0.92721000  0.60763000  0.5 0.0639385985
H  H42  1  0.58745000  0.66216000  0.88539000  0.5 0.0507679349
H  H43  1  0.67420000  0.63319000  0.87965000  0.5 0.0507679349
H  H44  1  0.60647000  0.57279000  0.89237000  0.5 0.0639385985
H  H46  1  0.08745000  0.16216000  0.38539000  0.5 0.0507679349
H  H47  1  0.17420000  0.13319000  0.37965000  0.5 0.0507679349
H  H48  1  0.10647000  0.07279000  0.39237000  0.5 0.0639385985
H  H50  1  0.41255000  0.66216000  0.11461000  0.5 0.0507679349
H  H51  1  0.32580000  0.63319000  0.12035000  0.5 0.0507679349
H  H52  1  0.39353000  0.57279000  0.10763000  0.5 0.0639385985
H  H54  1  0.91255000  0.16216000  0.61461000  0.5 0.0507679349
H  H55  1  0.82580000  0.13319000  0.62035000  0.5 0.0507679349
H  H56  1  0.89353000  0.07279000  0.60763000  0.5 0.0639385985
H  H58  1  0.41255000  0.33784000  0.88539000  0.5 0.0507679349
H  H59  1  0.32580000  0.36681000  0.87965000  0.5 0.0507679349
H  H60  1  0.39353000  0.42721000  0.89237000  0.5 0.0639385985
H  H62  1  0.91255000  0.83784000  0.38539000  0.5 0.0507679349
H  H63  1  0.82580000  0.86681000  0.37965000  0.5 0.0507679349
H  H64  1  0.89353000  0.92721000  0.39237000  0.5 0.0639385985
H  H66  1  0.11461000  0.58745000  0.33784000  0.5 0.0507679349
H  H67  1  0.12035000  0.67420000  0.36681000  0.5 0.0507679349
H  H68  1  0.10763000  0.60647000  0.42721000  0.5 0.0639385985
H  H70  1  0.61461000  0.08745000  0.83784000  0.5 0.0507679349
H  H71  1  0.62035000  0.17420000  0.86681000  0.5 0.0507679349
H  H72  1  0.60763000  0.10647000  0.92721000  0.5 0.0639385985
H  H74  1  0.88539000  0.58745000  0.66216000  0.5 0.0507679349
H  H75  1  0.87965000  0.67420000  0.63319000  0.5 0.0507679349
H  H76  1  0.89237000  0.60647000  0.57279000  0.5 0.0639385985
H  H78  1  0.38539000  0.08745000  0.16216000  0.5 0.0507679349
H  H79  1  0.37965000  0.17420000  0.13319000  0.5 0.0507679349
H  H80  1  0.39237000  0.10647000  0.07279000  0.5 0.0639385985
H  H82  1  0.11461000  0.41255000  0.66216000  0.5 0.0507679349
H  H83  1  0.12035000  0.32580000  0.63319000  0.5 0.0507679349
H  H84  1  0.10763000  0.39353000  0.57279000  0.5 0.0639385985
H  H86  1  0.61461000  0.91255000  0.16216000  0.5 0.0507679349
H  H87  1  0.62035000  0.82580000  0.13319000  0.5 0.0507679349
H  H88  1  0.60763000  0.89353000  0.07279000  0.5 0.0639385985
H  H90  1  0.88539000  0.41255000  0.33784000  0.5 0.0507679349
H  H91  1  0.87965000  0.32580000  0.36681000  0.5 0.0507679349
H  H92  1  0.89237000  0.39353000  0.42721000  0.5 0.0639385985
H  H94  1  0.38539000  0.91255000  0.83784000  0.5 0.0507679349
H  H95  1  0.37965000  0.82580000  0.86681000  0.5 0.0507679349
H  H96  1  0.39237000  0.89353000  0.92721000  0.5 0.0639385985
H  H98  1  0.11461000  0.33784000  0.58745000  0.5 0.0507679349
H  H99  1  0.12035000  0.36681000  0.67420000  0.5 0.0507679349
H  H100  1  0.10763000  0.42721000  0.60647000  0.5 0.0639385985
H  H102  1  0.61461000  0.83784000  0.08745000  0.5 0.0507679349
H  H103  1  0.62035000  0.86681000  0.17420000  0.5 0.0507679349
H  H104  1  0.60763000  0.92721000  0.10647000  0.5 0.0639385985
H  H106  1  0.88539000  0.66216000  0.58745000  0.5 0.0507679349
H  H107  1  0.87965000  0.63319000  0.67420000  0.5 0.0507679349
H  H108  1  0.89237000  0.57279000  0.60647000  0.5 0.0639385985
H  H110  1  0.38539000  0.16216000  0.08745000  0.5 0.0507679349
H  H111  1  0.37965000  0.13319000  0.17420000  0.5 0.0507679349
H  H112  1  0.39237000  0.07279000  0.10647000  0.5 0.0639385985
H  H114  1  0.11461000  0.66216000  0.41255000  0.5 0.0507679349
H  H115  1  0.12035000  0.63319000  0.32580000  0.5 0.0507679349
H  H116  1  0.10763000  0.57279000  0.39353000  0.5 0.0639385985
H  H118  1  0.61461000  0.16216000  0.91255000  0.5 0.0507679349
H  H119  1  0.62035000  0.13319000  0.82580000  0.5 0.0507679349
H  H120  1  0.60763000  0.07279000  0.89353000  0.5 0.0639385985
H  H122  1  0.88539000  0.33784000  0.41255000  0.5 0.0507679349
H  H123  1  0.87965000  0.36681000  0.32580000  0.5 0.0507679349
H  H124  1  0.89237000  0.42721000  0.39353000  0.5 0.0639385985
H  H126  1  0.38539000  0.83784000  0.91255000  0.5 0.0507679349
H  H127  1  0.37965000  0.86681000  0.82580000  0.5 0.0507679349
H  H128  1  0.39237000  0.92721000  0.89353000  0.5 0.0639385985
H  H130  1  0.33784000  0.58745000  0.11461000  0.5 0.0507679349
H  H131  1  0.36681000  0.67420000  0.12035000  0.5 0.0507679349
H  H132  1  0.42721000  0.60647000  0.10763000  0.5 0.0639385985
H  H134  1  0.83784000  0.08745000  0.61461000  0.5 0.0507679349
H  H135  1  0.86681000  0.17420000  0.62035000  0.5 0.0507679349
H  H136  1  0.92721000  0.10647000  0.60763000  0.5 0.0639385985
H  H138  1  0.66216000  0.58745000  0.88539000  0.5 0.0507679349
H  H139  1  0.63319000  0.67420000  0.87965000  0.5 0.0507679349
H  H140  1  0.57279000  0.60647000  0.89237000  0.5 0.0639385985
H  H142  1  0.16216000  0.08745000  0.38539000  0.5 0.0507679349
H  H143  1  0.13319000  0.17420000  0.37965000  0.5 0.0507679349
H  H144  1  0.07279000  0.10647000  0.39237000  0.5 0.0639385985
H  H146  1  0.66216000  0.41255000  0.11461000  0.5 0.0507679349
H  H147  1  0.63319000  0.32580000  0.12035000  0.5 0.0507679349
H  H148  1  0.57279000  0.39353000  0.10763000  0.5 0.0639385985
H  H150  1  0.16216000  0.91255000  0.61461000  0.5 0.0507679349
H  H151  1  0.13319000  0.82580000  0.62035000  0.5 0.0507679349
H  H152  1  0.07279000  0.89353000  0.60763000  0.5 0.0639385985
H  H154  1  0.33784000  0.41255000  0.88539000  0.5 0.0507679349
H  H155  1  0.36681000  0.32580000  0.87965000  0.5 0.0507679349
H  H156  1  0.42721000  0.39353000  0.89237000  0.5 0.0639385985
H  H158  1  0.83784000  0.91255000  0.38539000  0.5 0.0507679349
H  H159  1  0.86681000  0.82580000  0.37965000  0.5 0.0507679349
H  H160  1  0.92721000  0.89353000  0.39237000  0.5 0.0639385985
H  H162  1  0.58745000  0.11461000  0.33784000  0.5 0.0507679349
H  H163  1  0.67420000  0.12035000  0.36681000  0.5 0.0507679349
H  H164  1  0.60647000  0.10763000  0.42721000  0.5 0.0639385985
H  H166  1  0.08745000  0.61461000  0.83784000  0.5 0.0507679349
H  H167  1  0.17420000  0.62035000  0.86681000  0.5 0.0507679349
H  H168  1  0.10647000  0.60763000  0.92721000  0.5 0.0639385985
H  H170  1  0.58745000  0.88539000  0.66216000  0.5 0.0507679349
H  H171  1  0.67420000  0.87965000  0.63319000  0.5 0.0507679349
H  H172  1  0.60647000  0.89237000  0.57279000  0.5 0.0639385985
H  H174  1  0.08745000  0.38539000  0.16216000  0.5 0.0507679349
H  H175  1  0.17420000  0.37965000  0.13319000  0.5 0.0507679349
H  H176  1  0.10647000  0.39237000  0.07279000  0.5 0.0639385985
H  H178  1  0.41255000  0.11461000  0.66216000  0.5 0.0507679349
H  H179  1  0.32580000  0.12035000  0.63319000  0.5 0.0507679349
H  H180  1  0.39353000  0.10763000  0.57279000  0.5 0.0639385985
H  H182  1  0.91255000  0.61461000  0.16216000  0.5 0.0507679349
H  H183  1  0.82580000  0.62035000  0.13319000  0.5 0.0507679349
H  H184  1  0.89353000  0.60763000  0.07279000  0.5 0.0639385985
H  H186  1  0.41255000  0.88539000  0.33784000  0.5 0.0507679349
H  H187  1  0.32580000  0.87965000  0.36681000  0.5 0.0507679349
H  H188  1  0.39353000  0.89237000  0.42721000  0.5 0.0639385985
H  H190  1  0.91255000  0.38539000  0.83784000  0.5 0.0507679349
H  H191  1  0.82580000  0.37965000  0.86681000  0.5 0.0507679349
H  H192  1  0.89353000  0.39237000  0.92721000  0.5 0.0639385985
C  C1  1  0.39016000  0.89058000  0.66611000  1.0 -0.0501443274
C  C2  1  0.89016000  0.39058000  0.16611000  1.0 -0.0501443274
C  C3  1  0.60984000  0.10942000  0.66611000  1.0 -0.0501443274
C  C4  1  0.10984000  0.60942000  0.16611000  1.0 -0.0501443274
C  C5  1  0.60984000  0.89058000  0.33389000  1.0 -0.0501443274
C  C6  1  0.10984000  0.39058000  0.83389000  1.0 -0.0501443274
C  C7  1  0.39016000  0.10942000  0.33389000  1.0 -0.0501443274
C  C8  1  0.89016000  0.60942000  0.83389000  1.0 -0.0501443274
C  C9  1  0.66611000  0.39016000  0.89058000  1.0 -0.0501443274
C  C10  1  0.16611000  0.89016000  0.39058000  1.0 -0.0501443274
C  C11  1  0.66611000  0.60984000  0.10942000  1.0 -0.0501443274
C  C12  1  0.16611000  0.10984000  0.60942000  1.0 -0.0501443274
C  C13  1  0.33389000  0.60984000  0.89058000  1.0 -0.0501443274
C  C14  1  0.83389000  0.10984000  0.39058000  1.0 -0.0501443274
C  C15  1  0.33389000  0.39016000  0.10942000  1.0 -0.0501443274
C  C16  1  0.83389000  0.89016000  0.60942000  1.0 -0.0501443274
C  C17  1  0.89058000  0.66611000  0.39016000  1.0 -0.0501443274
C  C18  1  0.39058000  0.16611000  0.89016000  1.0 -0.0501443274
C  C19  1  0.10942000  0.66611000  0.60984000  1.0 -0.0501443274
C  C20  1  0.60942000  0.16611000  0.10984000  1.0 -0.0501443274
C  C21  1  0.89058000  0.33389000  0.60984000  1.0 -0.0501443274
C  C22  1  0.39058000  0.83389000  0.10984000  1.0 -0.0501443274
C  C23  1  0.10942000  0.33389000  0.39016000  1.0 -0.0501443274
C  C24  1  0.60942000  0.83389000  0.89016000  1.0 -0.0501443274
C  C25  1  0.89058000  0.39016000  0.66611000  1.0 -0.0501443274
C  C26  1  0.39058000  0.89016000  0.16611000  1.0 -0.0501443274
C  C27  1  0.10942000  0.60984000  0.66611000  1.0 -0.0501443274
C  C28  1  0.60942000  0.10984000  0.16611000  1.0 -0.0501443274
C  C29  1  0.89058000  0.60984000  0.33389000  1.0 -0.0501443274
C  C30  1  0.39058000  0.10984000  0.83389000  1.0 -0.0501443274
C  C31  1  0.10942000  0.39016000  0.33389000  1.0 -0.0501443274
C  C32  1  0.60942000  0.89016000  0.83389000  1.0 -0.0501443274
C  C33  1  0.39016000  0.66611000  0.89058000  1.0 -0.0501443274
C  C34  1  0.89016000  0.16611000  0.39058000  1.0 -0.0501443274
C  C35  1  0.60984000  0.66611000  0.10942000  1.0 -0.0501443274
C  C36  1  0.10984000  0.16611000  0.60942000  1.0 -0.0501443274
C  C37  1  0.60984000  0.33389000  0.89058000  1.0 -0.0501443274
C  C38  1  0.10984000  0.83389000  0.39058000  1.0 -0.0501443274
C  C39  1  0.39016000  0.33389000  0.10942000  1.0 -0.0501443274
C  C40  1  0.89016000  0.83389000  0.60942000  1.0 -0.0501443274
C  C41  1  0.66611000  0.89058000  0.39016000  1.0 -0.0501443274
C  C42  1  0.16611000  0.39058000  0.89016000  1.0 -0.0501443274
C  C43  1  0.66611000  0.10942000  0.60984000  1.0 -0.0501443274
C  C44  1  0.16611000  0.60942000  0.10984000  1.0 -0.0501443274
C  C45  1  0.33389000  0.89058000  0.60984000  1.0 -0.0501443274
C  C46  1  0.83389000  0.39058000  0.10984000  1.0 -0.0501443274
C  C47  1  0.33389000  0.10942000  0.39016000  1.0 -0.0501443274
C  C48  1  0.83389000  0.60942000  0.89016000  1.0 -0.0501443274
C  C49  1  0.36678000  0.00868000  0.63322000  1.0 0.2709839921
C  C50  1  0.37541000  0.09567000  0.62459000  1.0 -0.3933669622
C  C51  1  0.86678000  0.50868000  0.13322000  1.0 0.2709839921
C  C52  1  0.87541000  0.59567000  0.12459000  1.0 -0.3933669622
C  C53  1  0.63322000  0.99132000  0.63322000  1.0 0.2709839921
C  C54  1  0.62459000  0.90433000  0.62459000  1.0 -0.3933669622
C  C55  1  0.13322000  0.49132000  0.13322000  1.0 0.2709839921
C  C56  1  0.12459000  0.40433000  0.12459000  1.0 -0.3933669622
C  C57  1  0.63322000  0.00868000  0.36678000  1.0 0.2709839921
C  C58  1  0.62459000  0.09567000  0.37541000  1.0 -0.3933669622
C  C59  1  0.13322000  0.50868000  0.86678000  1.0 0.2709839921
C  C60  1  0.12459000  0.59567000  0.87541000  1.0 -0.3933669622
C  C61  1  0.36678000  0.99132000  0.36678000  1.0 0.2709839921
C  C62  1  0.37541000  0.90433000  0.37541000  1.0 -0.3933669622
C  C63  1  0.86678000  0.49132000  0.86678000  1.0 0.2709839921
C  C64  1  0.87541000  0.40433000  0.87541000  1.0 -0.3933669622
C  C65  1  0.63322000  0.36678000  0.00868000  1.0 0.2709839921
C  C66  1  0.62459000  0.37541000  0.09567000  1.0 -0.3933669622
C  C67  1  0.13322000  0.86678000  0.50868000  1.0 0.2709839921
C  C68  1  0.12459000  0.87541000  0.59567000  1.0 -0.3933669622
C  C69  1  0.63322000  0.63322000  0.99132000  1.0 0.2709839921
C  C70  1  0.62459000  0.62459000  0.90433000  1.0 -0.3933669622
C  C71  1  0.13322000  0.13322000  0.49132000  1.0 0.2709839921
C  C72  1  0.12459000  0.12459000  0.40433000  1.0 -0.3933669622
C  C73  1  0.36678000  0.63322000  0.00868000  1.0 0.2709839921
C  C74  1  0.37541000  0.62459000  0.09567000  1.0 -0.3933669622
C  C75  1  0.86678000  0.13322000  0.50868000  1.0 0.2709839921
C  C76  1  0.87541000  0.12459000  0.59567000  1.0 -0.3933669622
C  C77  1  0.36678000  0.36678000  0.99132000  1.0 0.2709839921
C  C78  1  0.37541000  0.37541000  0.90433000  1.0 -0.3933669622
C  C79  1  0.86678000  0.86678000  0.49132000  1.0 0.2709839921
C  C80  1  0.87541000  0.87541000  0.40433000  1.0 -0.3933669622
C  C81  1  0.00868000  0.63322000  0.36678000  1.0 0.2709839921
C  C82  1  0.09567000  0.62459000  0.37541000  1.0 -0.3933669622
C  C83  1  0.50868000  0.13322000  0.86678000  1.0 0.2709839921
C  C84  1  0.59567000  0.12459000  0.87541000  1.0 -0.3933669622
C  C85  1  0.99132000  0.63322000  0.63322000  1.0 0.2709839921
C  C86  1  0.90433000  0.62459000  0.62459000  1.0 -0.3933669622
C  C87  1  0.49132000  0.13322000  0.13322000  1.0 0.2709839921
C  C88  1  0.40433000  0.12459000  0.12459000  1.0 -0.3933669622
C  C89  1  0.00868000  0.36678000  0.63322000  1.0 0.2709839921
C  C90  1  0.09567000  0.37541000  0.62459000  1.0 -0.3933669622
C  C91  1  0.50868000  0.86678000  0.13322000  1.0 0.2709839921
C  C92  1  0.59567000  0.87541000  0.12459000  1.0 -0.3933669622
C  C93  1  0.99132000  0.36678000  0.36678000  1.0 0.2709839921
C  C94  1  0.90433000  0.37541000  0.37541000  1.0 -0.3933669622
C  C95  1  0.49132000  0.86678000  0.86678000  1.0 0.2709839921
C  C96  1  0.40433000  0.87541000  0.87541000  1.0 -0.3933669622
N  N1  1  0.41165000  0.96677000  0.68106000  1.0 -0.3328208949
N  N2  1  0.91165000  0.46677000  0.18106000  1.0 -0.3328208949
N  N3  1  0.58835000  0.03323000  0.68106000  1.0 -0.3328208949
N  N4  1  0.08835000  0.53323000  0.18106000  1.0 -0.3328208949
N  N5  1  0.58835000  0.96677000  0.31894000  1.0 -0.3328208949
N  N6  1  0.08835000  0.46677000  0.81894000  1.0 -0.3328208949
N  N7  1  0.41165000  0.03323000  0.31894000  1.0 -0.3328208949
N  N8  1  0.91165000  0.53323000  0.81894000  1.0 -0.3328208949
N  N9  1  0.68106000  0.41165000  0.96677000  1.0 -0.3328208949
N  N10  1  0.18106000  0.91165000  0.46677000  1.0 -0.3328208949
N  N11  1  0.68106000  0.58835000  0.03323000  1.0 -0.3328208949
N  N12  1  0.18106000  0.08835000  0.53323000  1.0 -0.3328208949
N  N13  1  0.31894000  0.58835000  0.96677000  1.0 -0.3328208949
N  N14  1  0.81894000  0.08835000  0.46677000  1.0 -0.3328208949
N  N15  1  0.31894000  0.41165000  0.03323000  1.0 -0.3328208949
N  N16  1  0.81894000  0.91165000  0.53323000  1.0 -0.3328208949
N  N17  1  0.96677000  0.68106000  0.41165000  1.0 -0.3328208949
N  N18  1  0.46677000  0.18106000  0.91165000  1.0 -0.3328208949
N  N19  1  0.03323000  0.68106000  0.58835000  1.0 -0.3328208949
N  N20  1  0.53323000  0.18106000  0.08835000  1.0 -0.3328208949
N  N21  1  0.96677000  0.31894000  0.58835000  1.0 -0.3328208949
N  N22  1  0.46677000  0.81894000  0.08835000  1.0 -0.3328208949
N  N23  1  0.03323000  0.31894000  0.41165000  1.0 -0.3328208949
N  N24  1  0.53323000  0.81894000  0.91165000  1.0 -0.3328208949
N  N25  1  0.96677000  0.41165000  0.68106000  1.0 -0.3328208949
N  N26  1  0.46677000  0.91165000  0.18106000  1.0 -0.3328208949
N  N27  1  0.03323000  0.58835000  0.68106000  1.0 -0.3328208949
N  N28  1  0.53323000  0.08835000  0.18106000  1.0 -0.3328208949
N  N29  1  0.96677000  0.58835000  0.31894000  1.0 -0.3328208949
N  N30  1  0.46677000  0.08835000  0.81894000  1.0 -0.3328208949
N  N31  1  0.03323000  0.41165000  0.31894000  1.0 -0.3328208949
N  N32  1  0.53323000  0.91165000  0.81894000  1.0 -0.3328208949
N  N33  1  0.41165000  0.68106000  0.96677000  1.0 -0.3328208949
N  N34  1  0.91165000  0.18106000  0.46677000  1.0 -0.3328208949
N  N35  1  0.58835000  0.68106000  0.03323000  1.0 -0.3328208949
N  N36  1  0.08835000  0.18106000  0.53323000  1.0 -0.3328208949
N  N37  1  0.58835000  0.31894000  0.96677000  1.0 -0.3328208949
N  N38  1  0.08835000  0.81894000  0.46677000  1.0 -0.3328208949
N  N39  1  0.41165000  0.31894000  0.03323000  1.0 -0.3328208949
N  N40  1  0.91165000  0.81894000  0.53323000  1.0 -0.3328208949
N  N41  1  0.68106000  0.96677000  0.41165000  1.0 -0.3328208949
N  N42  1  0.18106000  0.46677000  0.91165000  1.0 -0.3328208949
N  N43  1  0.68106000  0.03323000  0.58835000  1.0 -0.3328208949
N  N44  1  0.18106000  0.53323000  0.08835000  1.0 -0.3328208949
N  N45  1  0.31894000  0.96677000  0.58835000  1.0 -0.3328208949
N  N46  1  0.81894000  0.46677000  0.08835000  1.0 -0.3328208949
N  N47  1  0.31894000  0.03323000  0.41165000  1.0 -0.3328208949
N  N48  1  0.81894000  0.53323000  0.91165000  1.0 -0.3328208949
