# DDEC6 charges by PACMAN v1.1 (https://github.com/mtap-research/PACMAN-charge/)
data_c5dt03710g2_15_FSR_pacman
_symmetry_space_group_name_H-M   'P 1'
_cell_length_a   13.43070000
_cell_length_b   17.09640000
_cell_length_c   9.59480000
_cell_angle_alpha   90.00000000
_cell_angle_beta   90.00000000
_cell_angle_gamma   90.00000000
_symmetry_Int_Tables_number   1
_chemical_formula_structural   ZnH9C11NO4
_chemical_formula_sum   'Zn4 H36 C44 N4 O16'
_cell_volume   2203.12554059
_cell_formula_units_Z   4
loop_
 _symmetry_equiv_pos_site_id
 _symmetry_equiv_pos_as_xyz
  1  'x, y, z'
loop_
 _atom_site_type_symbol
 _atom_site_label
 _atom_site_symmetry_multiplicity
 _atom_site_fract_x
 _atom_site_fract_y
 _atom_site_fract_z
 _atom_site_occupancy
 _atom_site_charge
Zn  Zn1  1  0.50000000  0.50000000  0.34806000  1.0 0.7746563268
Zn  Zn2  1  0.50000000  0.50000000  0.65194000  1.0 0.7746563268
Zn  Zn3  1  0.00000000  0.00000000  0.34806000  1.0 0.7746563268
Zn  Zn4  1  0.00000000  0.00000000  0.65194000  1.0 0.7746563268
H  H1  1  0.70210000  0.69380000  0.71260000  1.0 0.1253730369
H  H2  1  0.29790000  0.30620000  0.71260000  1.0 0.1253730369
H  H3  1  0.29790000  0.69380000  0.28740000  1.0 0.1253730369
H  H4  1  0.70210000  0.30620000  0.28740000  1.0 0.1253730369
H  H5  1  0.20210000  0.19380000  0.71260000  1.0 0.1253730369
H  H6  1  0.79790000  0.80620000  0.71260000  1.0 0.1253730369
H  H7  1  0.79790000  0.19380000  0.28740000  1.0 0.1253730369
H  H8  1  0.20210000  0.80620000  0.28740000  1.0 0.1253730369
H  H9  1  0.29790000  0.30620000  0.28740000  1.0 0.1253730369
H  H10  1  0.70210000  0.69380000  0.28740000  1.0 0.1253730369
H  H11  1  0.70210000  0.30620000  0.71260000  1.0 0.1253730369
H  H12  1  0.29790000  0.69380000  0.71260000  1.0 0.1253730369
H  H13  1  0.79790000  0.80620000  0.28740000  1.0 0.1253730369
H  H14  1  0.20210000  0.19380000  0.28740000  1.0 0.1253730369
H  H15  1  0.20210000  0.80620000  0.71260000  1.0 0.1253730369
H  H16  1  0.79790000  0.19380000  0.71260000  1.0 0.1253730369
H  H17  1  0.44030000  0.39150000  0.11550000  0.25 0.0910849192
H  H18  1  0.55970000  0.60850000  0.11550000  0.25 0.0910849192
H  H19  1  0.55970000  0.39150000  0.88450000  0.25 0.0910849192
H  H20  1  0.44030000  0.60850000  0.88450000  0.25 0.0910849192
H  H21  1  0.94030000  0.89150000  0.11550000  0.25 0.0910849192
H  H22  1  0.05970000  0.10850000  0.11550000  0.25 0.0910849192
H  H23  1  0.05970000  0.89150000  0.88450000  0.25 0.0910849192
H  H24  1  0.94030000  0.10850000  0.88450000  0.25 0.0910849192
H  H25  1  0.55970000  0.60850000  0.88450000  0.25 0.0910849192
H  H26  1  0.44030000  0.39150000  0.88450000  0.25 0.0910849192
H  H27  1  0.44030000  0.60850000  0.11550000  0.25 0.0910849192
H  H28  1  0.55970000  0.39150000  0.11550000  0.25 0.0910849192
H  H29  1  0.05970000  0.10850000  0.88450000  0.25 0.0910849192
H  H30  1  0.94030000  0.89150000  0.88450000  0.25 0.0910849192
H  H31  1  0.94030000  0.10850000  0.11550000  0.25 0.0910849192
H  H32  1  0.05970000  0.89150000  0.11550000  0.25 0.0910849192
H  H33  1  0.35010000  0.48410000  0.11520000  0.5 0.0799301084
H  H34  1  0.64990000  0.51590000  0.11520000  0.5 0.0799301084
H  H35  1  0.64990000  0.48410000  0.88480000  0.5 0.0799301084
H  H36  1  0.35010000  0.51590000  0.88480000  0.5 0.0799301084
H  H37  1  0.85010000  0.98410000  0.11520000  0.5 0.0799301084
H  H38  1  0.14990000  0.01590000  0.11520000  0.5 0.0799301084
H  H39  1  0.14990000  0.98410000  0.88480000  0.5 0.0799301084
H  H40  1  0.85010000  0.01590000  0.88480000  0.5 0.0799301084
H  H41  1  0.64990000  0.51590000  0.88480000  0.5 0.0799301084
H  H42  1  0.35010000  0.48410000  0.88480000  0.5 0.0799301084
H  H43  1  0.35010000  0.51590000  0.11520000  0.5 0.0799301084
H  H44  1  0.64990000  0.48410000  0.11520000  0.5 0.0799301084
H  H45  1  0.14990000  0.01590000  0.88480000  0.5 0.0799301084
H  H46  1  0.85010000  0.98410000  0.88480000  0.5 0.0799301084
H  H47  1  0.85010000  0.01590000  0.11520000  0.5 0.0799301084
H  H48  1  0.14990000  0.98410000  0.11520000  0.5 0.0799301084
H  H49  1  0.41140000  0.40370000  0.11520000  0.5 0.0910849192
H  H50  1  0.58860000  0.59630000  0.11520000  0.5 0.0910849192
H  H51  1  0.58860000  0.40370000  0.88480000  0.5 0.0910849192
H  H52  1  0.41140000  0.59630000  0.88480000  0.5 0.0910849192
H  H53  1  0.91140000  0.90370000  0.11520000  0.5 0.0910849192
H  H54  1  0.08860000  0.09630000  0.11520000  0.5 0.0910849192
H  H55  1  0.08860000  0.90370000  0.88480000  0.5 0.0910849192
H  H56  1  0.91140000  0.09630000  0.88480000  0.5 0.0910849192
H  H57  1  0.58860000  0.59630000  0.88480000  0.5 0.0910849192
H  H58  1  0.41140000  0.40370000  0.88480000  0.5 0.0910849192
H  H59  1  0.41140000  0.59630000  0.11520000  0.5 0.0910849192
H  H60  1  0.58860000  0.40370000  0.11520000  0.5 0.0910849192
H  H61  1  0.08860000  0.09630000  0.88480000  0.5 0.0910849192
H  H62  1  0.91140000  0.90370000  0.88480000  0.5 0.0910849192
H  H63  1  0.91140000  0.09630000  0.11520000  0.5 0.0910849192
H  H64  1  0.08860000  0.90370000  0.11520000  0.5 0.0910849192
C  C1  1  0.62770000  0.61080000  0.50000000  1.0 0.5576383261
C  C2  1  0.37230000  0.38920000  0.50000000  1.0 0.5576383261
C  C3  1  0.37230000  0.61080000  0.50000000  1.0 0.5576383261
C  C4  1  0.62770000  0.38920000  0.50000000  1.0 0.5576383261
C  C5  1  0.12770000  0.11080000  0.50000000  1.0 0.5576383261
C  C6  1  0.87230000  0.88920000  0.50000000  1.0 0.5576383261
C  C7  1  0.87230000  0.11080000  0.50000000  1.0 0.5576383261
C  C8  1  0.12770000  0.88920000  0.50000000  1.0 0.5576383261
C  C9  1  0.69150000  0.68280000  0.50000000  1.0 -0.0069229944
C  C10  1  0.30850000  0.31720000  0.50000000  1.0 -0.0069229944
C  C11  1  0.30850000  0.68280000  0.50000000  1.0 -0.0069229944
C  C12  1  0.69150000  0.31720000  0.50000000  1.0 -0.0069229944
C  C13  1  0.19150000  0.18280000  0.50000000  1.0 -0.0069229944
C  C14  1  0.80850000  0.81720000  0.50000000  1.0 -0.0069229944
C  C15  1  0.80850000  0.18280000  0.50000000  1.0 -0.0069229944
C  C16  1  0.19150000  0.81720000  0.50000000  1.0 -0.0069229944
C  C17  1  0.72150000  0.71690000  0.62680000  1.0 -0.1224171805
C  C18  1  0.27850000  0.28310000  0.62680000  1.0 -0.1224171805
C  C19  1  0.27850000  0.71690000  0.37320000  1.0 -0.1224171805
C  C20  1  0.72150000  0.28310000  0.37320000  1.0 -0.1224171805
C  C21  1  0.22150000  0.21690000  0.62680000  1.0 -0.1224171805
C  C22  1  0.77850000  0.78310000  0.62680000  1.0 -0.1224171805
C  C23  1  0.77850000  0.21690000  0.37320000  1.0 -0.1224171805
C  C24  1  0.22150000  0.78310000  0.37320000  1.0 -0.1224171805
C  C25  1  0.27850000  0.28310000  0.37320000  1.0 -0.1224171805
C  C26  1  0.72150000  0.71690000  0.37320000  1.0 -0.1224171805
C  C27  1  0.72150000  0.28310000  0.62680000  1.0 -0.1224171805
C  C28  1  0.27850000  0.71690000  0.62680000  1.0 -0.1224171805
C  C29  1  0.77850000  0.78310000  0.37320000  1.0 -0.1224171805
C  C30  1  0.22150000  0.21690000  0.37320000  1.0 -0.1224171805
C  C31  1  0.22150000  0.78310000  0.62680000  1.0 -0.1224171805
C  C32  1  0.77850000  0.21690000  0.62680000  1.0 -0.1224171805
C  C33  1  0.50000000  0.41940000  0.08090000  0.5 -0.1224171805
C  C34  1  0.50000000  0.58060000  0.08090000  0.5 -0.1224171805
C  C35  1  0.50000000  0.41940000  0.91910000  0.5 -0.1224171805
C  C36  1  0.50000000  0.58060000  0.91910000  0.5 -0.1224171805
C  C37  1  0.00000000  0.91940000  0.08090000  0.5 -0.1224171805
C  C38  1  0.00000000  0.08060000  0.08090000  0.5 -0.1224171805
C  C39  1  0.00000000  0.91940000  0.91910000  0.5 -0.1224171805
C  C40  1  0.00000000  0.08060000  0.91910000  0.5 -0.1224171805
C  C41  1  0.41120000  0.45830000  0.08060000  0.5 -0.1224171805
C  C42  1  0.58880000  0.54170000  0.08060000  0.5 -0.1224171805
C  C43  1  0.58880000  0.45830000  0.91940000  0.5 -0.1224171805
C  C44  1  0.41120000  0.54170000  0.91940000  0.5 -0.1224171805
C  C45  1  0.91120000  0.95830000  0.08060000  0.5 -0.1224171805
C  C46  1  0.08880000  0.04170000  0.08060000  0.5 -0.1224171805
C  C47  1  0.08880000  0.95830000  0.91940000  0.5 -0.1224171805
C  C48  1  0.91120000  0.04170000  0.91940000  0.5 -0.1224171805
C  C49  1  0.58880000  0.54170000  0.91940000  0.5 -0.1224171805
C  C50  1  0.41120000  0.45830000  0.91940000  0.5 -0.1224171805
C  C51  1  0.41120000  0.54170000  0.08060000  0.5 -0.1224171805
C  C52  1  0.58880000  0.45830000  0.08060000  0.5 -0.1224171805
C  C53  1  0.08880000  0.04170000  0.91940000  0.5 -0.1224171805
C  C54  1  0.91120000  0.95830000  0.91940000  0.5 -0.1224171805
C  C55  1  0.91120000  0.04170000  0.08060000  0.5 -0.1224171805
C  C56  1  0.08880000  0.95830000  0.08060000  0.5 -0.1224171805
N  N1  1  0.50000000  0.50000000  0.13430000  1.0 -0.0808713424
N  N2  1  0.50000000  0.50000000  0.86570000  1.0 -0.0808713424
N  N3  1  0.00000000  0.00000000  0.13430000  1.0 -0.0808713424
N  N4  1  0.00000000  0.00000000  0.86570000  1.0 -0.0808713424
O  O1  1  0.60290000  0.58371000  0.38480000  1.0 -0.5302339444
O  O2  1  0.39710000  0.41629000  0.38480000  1.0 -0.5302339444
O  O3  1  0.39710000  0.58371000  0.61520000  1.0 -0.5302339444
O  O4  1  0.60290000  0.41629000  0.61520000  1.0 -0.5302339444
O  O5  1  0.10290000  0.08371000  0.38480000  1.0 -0.5302339444
O  O6  1  0.89710000  0.91629000  0.38480000  1.0 -0.5302339444
O  O7  1  0.89710000  0.08371000  0.61520000  1.0 -0.5302339444
O  O8  1  0.10290000  0.91629000  0.61520000  1.0 -0.5302339444
O  O9  1  0.39710000  0.41629000  0.61520000  1.0 -0.5302339444
O  O10  1  0.60290000  0.58371000  0.61520000  1.0 -0.5302339444
O  O11  1  0.60290000  0.41629000  0.38480000  1.0 -0.5302339444
O  O12  1  0.39710000  0.58371000  0.38480000  1.0 -0.5302339444
O  O13  1  0.89710000  0.91629000  0.61520000  1.0 -0.5302339444
O  O14  1  0.10290000  0.08371000  0.61520000  1.0 -0.5302339444
O  O15  1  0.10290000  0.91629000  0.38480000  1.0 -0.5302339444
O  O16  1  0.89710000  0.08371000  0.38480000  1.0 -0.5302339444
