# DDEC6 charges by PACMAN v1.1 (https://github.com/mtap-research/PACMAN-charge/)
data_ja9b02686_si_002_FSR_pacman
_symmetry_space_group_name_H-M   'P 1'
_cell_length_a   17.16560000
_cell_length_b   17.16560000
_cell_length_c   17.16560000
_cell_angle_alpha   90.00000000
_cell_angle_beta   90.00000000
_cell_angle_gamma   90.00000000
_symmetry_Int_Tables_number   1
_chemical_formula_structural   FeH10(C2N)4
_chemical_formula_sum   'Fe12 H120 C96 N48'
_cell_volume   5057.97833267
_cell_formula_units_Z   12
loop_
 _symmetry_equiv_pos_site_id
 _symmetry_equiv_pos_as_xyz
  1  'x, y, z'
loop_
 _atom_site_type_symbol
 _atom_site_label
 _atom_site_symmetry_multiplicity
 _atom_site_fract_x
 _atom_site_fract_y
 _atom_site_fract_z
 _atom_site_occupancy
 _atom_site_charge
Fe  Fe1  1  0.50000000  0.00000000  0.75000000  1.0 0.4968950416
Fe  Fe2  1  0.50000000  0.00000000  0.25000000  1.0 0.4968950416
Fe  Fe3  1  0.75000000  0.50000000  0.00000000  1.0 0.4968950416
Fe  Fe4  1  0.25000000  0.50000000  0.00000000  1.0 0.494566616
Fe  Fe5  1  0.00000000  0.75000000  0.50000000  1.0 0.494566616
Fe  Fe6  1  0.00000000  0.25000000  0.50000000  1.0 0.494566616
Fe  Fe7  1  0.00000000  0.50000000  0.75000000  1.0 0.494566616
Fe  Fe8  1  0.00000000  0.50000000  0.25000000  1.0 0.494566616
Fe  Fe9  1  0.50000000  0.75000000  0.00000000  1.0 0.4968950416
Fe  Fe10  1  0.50000000  0.25000000  0.00000000  1.0 0.4968950416
Fe  Fe11  1  0.75000000  0.00000000  0.50000000  1.0 0.4968950416
Fe  Fe12  1  0.25000000  0.00000000  0.50000000  1.0 0.494566616
H  H1  1  0.39246000  0.15645000  0.70641000  1.0 0.1190877423
H  H2  1  0.89246000  0.65645000  0.20641000  1.0 0.1190877423
H  H3  1  0.60754000  0.84355000  0.70641000  1.0 0.1190877423
H  H4  1  0.10754000  0.34355000  0.20641000  1.0 0.1190877423
H  H5  1  0.60754000  0.15645000  0.29359000  1.0 0.1190877423
H  H6  1  0.10754000  0.65645000  0.79359000  1.0 0.1190877423
H  H7  1  0.39246000  0.84355000  0.29359000  1.0 0.1190877423
H  H8  1  0.89246000  0.34355000  0.79359000  1.0 0.1190877423
H  H9  1  0.70641000  0.39246000  0.15645000  1.0 0.1190877423
H  H10  1  0.20641000  0.89246000  0.65645000  1.0 0.1190877423
H  H11  1  0.70641000  0.60754000  0.84355000  1.0 0.1190877423
H  H12  1  0.20641000  0.10754000  0.34355000  1.0 0.1190877423
H  H13  1  0.29359000  0.60754000  0.15645000  1.0 0.1190877423
H  H14  1  0.79359000  0.10754000  0.65645000  1.0 0.1190877423
H  H15  1  0.29359000  0.39246000  0.84355000  1.0 0.1190877423
H  H16  1  0.79359000  0.89246000  0.34355000  1.0 0.1190877423
H  H17  1  0.15645000  0.70641000  0.39246000  1.0 0.1190877423
H  H18  1  0.65645000  0.20641000  0.89246000  1.0 0.1190877423
H  H19  1  0.84355000  0.70641000  0.60754000  1.0 0.1190877423
H  H20  1  0.34355000  0.20641000  0.10754000  1.0 0.1190877423
H  H21  1  0.15645000  0.29359000  0.60754000  1.0 0.1190877423
H  H22  1  0.65645000  0.79359000  0.10754000  1.0 0.1190877423
H  H23  1  0.84355000  0.29359000  0.39246000  1.0 0.1190877423
H  H24  1  0.34355000  0.79359000  0.89246000  1.0 0.1190877423
H  H25  1  0.15645000  0.39246000  0.70641000  1.0 0.1190877423
H  H26  1  0.65645000  0.89246000  0.20641000  1.0 0.1190877423
H  H27  1  0.84355000  0.60754000  0.70641000  1.0 0.1190877423
H  H28  1  0.34355000  0.10754000  0.20641000  1.0 0.1190877423
H  H29  1  0.15645000  0.60754000  0.29359000  1.0 0.1190877423
H  H30  1  0.65645000  0.10754000  0.79359000  1.0 0.1190877423
H  H31  1  0.84355000  0.39246000  0.29359000  1.0 0.1190877423
H  H32  1  0.34355000  0.89246000  0.79359000  1.0 0.1190877423
H  H33  1  0.39246000  0.70641000  0.15645000  1.0 0.1190877423
H  H34  1  0.89246000  0.20641000  0.65645000  1.0 0.1190877423
H  H35  1  0.60754000  0.70641000  0.84355000  1.0 0.1190877423
H  H36  1  0.10754000  0.20641000  0.34355000  1.0 0.1190877423
H  H37  1  0.60754000  0.29359000  0.15645000  1.0 0.1190877423
H  H38  1  0.10754000  0.79359000  0.65645000  1.0 0.1190877423
H  H39  1  0.39246000  0.29359000  0.84355000  1.0 0.1190877423
H  H40  1  0.89246000  0.79359000  0.34355000  1.0 0.1190877423
H  H41  1  0.70641000  0.15645000  0.39246000  1.0 0.1190877423
H  H42  1  0.20641000  0.65645000  0.89246000  1.0 0.1190877423
H  H43  1  0.70641000  0.84355000  0.60754000  1.0 0.1190877423
H  H44  1  0.20641000  0.34355000  0.10754000  1.0 0.1190877423
H  H45  1  0.29359000  0.15645000  0.60754000  1.0 0.1190877423
H  H46  1  0.79359000  0.65645000  0.10754000  1.0 0.1190877423
H  H47  1  0.29359000  0.84355000  0.39246000  1.0 0.1190877423
H  H48  1  0.79359000  0.34355000  0.89246000  1.0 0.1190877423
H  H49  1  0.38909000  0.90439000  0.54816000  0.5 0.111132018
H  H50  1  0.36145000  0.87615000  0.63261000  0.5 0.1257042255
H  H51  1  0.44996000  0.90194000  0.61873000  0.5 0.111132018
H  H52  1  0.88909000  0.40439000  0.04816000  0.5 0.111132018
H  H53  1  0.86145000  0.37615000  0.13261000  0.5 0.1257042255
H  H54  1  0.94996000  0.40194000  0.11873000  0.5 0.111132018
H  H55  1  0.61091000  0.09561000  0.54816000  0.5 0.111132018
H  H56  1  0.63855000  0.12385000  0.63261000  0.5 0.1257042255
H  H57  1  0.55004000  0.09806000  0.61873000  0.5 0.111132018
H  H58  1  0.11091000  0.59561000  0.04816000  0.5 0.111132018
H  H59  1  0.13855000  0.62385000  0.13261000  0.5 0.1257042255
H  H60  1  0.05004000  0.59806000  0.11873000  0.5 0.111132018
H  H61  1  0.61091000  0.90439000  0.45184000  0.5 0.111132018
H  H62  1  0.63855000  0.87615000  0.36739000  0.5 0.1257042255
H  H63  1  0.55004000  0.90194000  0.38127000  0.5 0.111132018
H  H64  1  0.11091000  0.40439000  0.95184000  0.5 0.111132018
H  H65  1  0.13855000  0.37615000  0.86739000  0.5 0.1257042255
H  H66  1  0.05004000  0.40194000  0.88127000  0.5 0.111132018
H  H67  1  0.38909000  0.09561000  0.45184000  0.5 0.111132018
H  H68  1  0.36145000  0.12385000  0.36739000  0.5 0.1257042255
H  H69  1  0.44996000  0.09806000  0.38127000  0.5 0.111132018
H  H70  1  0.88909000  0.59561000  0.95184000  0.5 0.111132018
H  H71  1  0.86145000  0.62385000  0.86739000  0.5 0.1257042255
H  H72  1  0.94996000  0.59806000  0.88127000  0.5 0.111132018
H  H73  1  0.54816000  0.38909000  0.90439000  0.5 0.111132018
H  H74  1  0.63261000  0.36145000  0.87615000  0.5 0.1257042255
H  H75  1  0.61873000  0.44996000  0.90194000  0.5 0.111132018
H  H76  1  0.04816000  0.88909000  0.40439000  0.5 0.111132018
H  H77  1  0.13261000  0.86145000  0.37615000  0.5 0.1257042255
H  H78  1  0.11873000  0.94996000  0.40194000  0.5 0.111132018
H  H79  1  0.54816000  0.61091000  0.09561000  0.5 0.111132018
H  H80  1  0.63261000  0.63855000  0.12385000  0.5 0.1257042255
H  H81  1  0.61873000  0.55004000  0.09806000  0.5 0.111132018
H  H82  1  0.04816000  0.11091000  0.59561000  0.5 0.111132018
H  H83  1  0.13261000  0.13855000  0.62385000  0.5 0.1257042255
H  H84  1  0.11873000  0.05004000  0.59806000  0.5 0.111132018
H  H85  1  0.45184000  0.61091000  0.90439000  0.5 0.111132018
H  H86  1  0.36739000  0.63855000  0.87615000  0.5 0.1257042255
H  H87  1  0.38127000  0.55004000  0.90194000  0.5 0.111132018
H  H88  1  0.95184000  0.11091000  0.40439000  0.5 0.111132018
H  H89  1  0.86739000  0.13855000  0.37615000  0.5 0.1257042255
H  H90  1  0.88127000  0.05004000  0.40194000  0.5 0.111132018
H  H91  1  0.45184000  0.38909000  0.09561000  0.5 0.111132018
H  H92  1  0.36739000  0.36145000  0.12385000  0.5 0.1257042255
H  H93  1  0.38127000  0.44996000  0.09806000  0.5 0.111132018
H  H94  1  0.95184000  0.88909000  0.59561000  0.5 0.111132018
H  H95  1  0.86739000  0.86145000  0.62385000  0.5 0.1257042255
H  H96  1  0.88127000  0.94996000  0.59806000  0.5 0.111132018
H  H97  1  0.90439000  0.54816000  0.38909000  0.5 0.111132018
H  H98  1  0.87615000  0.63261000  0.36145000  0.5 0.1257042255
H  H99  1  0.90194000  0.61873000  0.44996000  0.5 0.111132018
H  H100  1  0.40439000  0.04816000  0.88909000  0.5 0.111132018
H  H101  1  0.37615000  0.13261000  0.86145000  0.5 0.1257042255
H  H102  1  0.40194000  0.11873000  0.94996000  0.5 0.111132018
H  H103  1  0.09561000  0.54816000  0.61091000  0.5 0.111132018
H  H104  1  0.12385000  0.63261000  0.63855000  0.5 0.1257042255
H  H105  1  0.09806000  0.61873000  0.55004000  0.5 0.111132018
H  H106  1  0.59561000  0.04816000  0.11091000  0.5 0.111132018
H  H107  1  0.62385000  0.13261000  0.13855000  0.5 0.1257042255
H  H108  1  0.59806000  0.11873000  0.05004000  0.5 0.111132018
H  H109  1  0.90439000  0.45184000  0.61091000  0.5 0.111132018
H  H110  1  0.87615000  0.36739000  0.63855000  0.5 0.1257042255
H  H111  1  0.90194000  0.38127000  0.55004000  0.5 0.111132018
H  H112  1  0.40439000  0.95184000  0.11091000  0.5 0.111132018
H  H113  1  0.37615000  0.86739000  0.13855000  0.5 0.1257042255
H  H114  1  0.40194000  0.88127000  0.05004000  0.5 0.111132018
H  H115  1  0.09561000  0.45184000  0.38909000  0.5 0.111132018
H  H116  1  0.12385000  0.36739000  0.36145000  0.5 0.1257042255
H  H117  1  0.09806000  0.38127000  0.44996000  0.5 0.111132018
H  H118  1  0.59561000  0.95184000  0.88909000  0.5 0.111132018
H  H119  1  0.62385000  0.86739000  0.86145000  0.5 0.1257042255
H  H120  1  0.59806000  0.88127000  0.94996000  0.5 0.111132018
H  H121  1  0.90439000  0.38909000  0.54816000  0.5 0.111132018
H  H122  1  0.87615000  0.36145000  0.63261000  0.5 0.1257042255
H  H123  1  0.90194000  0.44996000  0.61873000  0.5 0.111132018
H  H124  1  0.40439000  0.88909000  0.04816000  0.5 0.111132018
H  H125  1  0.37615000  0.86145000  0.13261000  0.5 0.1257042255
H  H126  1  0.40194000  0.94996000  0.11873000  0.5 0.111132018
H  H127  1  0.09561000  0.61091000  0.54816000  0.5 0.111132018
H  H128  1  0.12385000  0.63855000  0.63261000  0.5 0.1257042255
H  H129  1  0.09806000  0.55004000  0.61873000  0.5 0.111132018
H  H130  1  0.59561000  0.11091000  0.04816000  0.5 0.111132018
H  H131  1  0.62385000  0.13855000  0.13261000  0.5 0.1257042255
H  H132  1  0.59806000  0.05004000  0.11873000  0.5 0.111132018
H  H133  1  0.90439000  0.61091000  0.45184000  0.5 0.111132018
H  H134  1  0.87615000  0.63855000  0.36739000  0.5 0.1257042255
H  H135  1  0.90194000  0.55004000  0.38127000  0.5 0.111132018
H  H136  1  0.40439000  0.11091000  0.95184000  0.5 0.111132018
H  H137  1  0.37615000  0.13855000  0.86739000  0.5 0.1257042255
H  H138  1  0.40194000  0.05004000  0.88127000  0.5 0.111132018
H  H139  1  0.09561000  0.38909000  0.45184000  0.5 0.111132018
H  H140  1  0.12385000  0.36145000  0.36739000  0.5 0.1257042255
H  H141  1  0.09806000  0.44996000  0.38127000  0.5 0.111132018
H  H142  1  0.59561000  0.88909000  0.95184000  0.5 0.111132018
H  H143  1  0.62385000  0.86145000  0.86739000  0.5 0.1257042255
H  H144  1  0.59806000  0.94996000  0.88127000  0.5 0.111132018
H  H145  1  0.38909000  0.54816000  0.90439000  0.5 0.111132018
H  H146  1  0.36145000  0.63261000  0.87615000  0.5 0.1257042255
H  H147  1  0.44996000  0.61873000  0.90194000  0.5 0.111132018
H  H148  1  0.88909000  0.04816000  0.40439000  0.5 0.111132018
H  H149  1  0.86145000  0.13261000  0.37615000  0.5 0.1257042255
H  H150  1  0.94996000  0.11873000  0.40194000  0.5 0.111132018
H  H151  1  0.61091000  0.54816000  0.09561000  0.5 0.111132018
H  H152  1  0.63855000  0.63261000  0.12385000  0.5 0.1257042255
H  H153  1  0.55004000  0.61873000  0.09806000  0.5 0.111132018
H  H154  1  0.11091000  0.04816000  0.59561000  0.5 0.111132018
H  H155  1  0.13855000  0.13261000  0.62385000  0.5 0.1257042255
H  H156  1  0.05004000  0.11873000  0.59806000  0.5 0.111132018
H  H157  1  0.61091000  0.45184000  0.90439000  0.5 0.111132018
H  H158  1  0.63855000  0.36739000  0.87615000  0.5 0.1257042255
H  H159  1  0.55004000  0.38127000  0.90194000  0.5 0.111132018
H  H160  1  0.11091000  0.95184000  0.40439000  0.5 0.111132018
H  H161  1  0.13855000  0.86739000  0.37615000  0.5 0.1257042255
H  H162  1  0.05004000  0.88127000  0.40194000  0.5 0.111132018
H  H163  1  0.38909000  0.45184000  0.09561000  0.5 0.111132018
H  H164  1  0.36145000  0.36739000  0.12385000  0.5 0.1257042255
H  H165  1  0.44996000  0.38127000  0.09806000  0.5 0.111132018
H  H166  1  0.88909000  0.95184000  0.59561000  0.5 0.111132018
H  H167  1  0.86145000  0.86739000  0.62385000  0.5 0.1257042255
H  H168  1  0.94996000  0.88127000  0.59806000  0.5 0.111132018
H  H169  1  0.54816000  0.90439000  0.38909000  0.5 0.111132018
H  H170  1  0.63261000  0.87615000  0.36145000  0.5 0.1257042255
H  H171  1  0.61873000  0.90194000  0.44996000  0.5 0.111132018
H  H172  1  0.04816000  0.40439000  0.88909000  0.5 0.111132018
H  H173  1  0.13261000  0.37615000  0.86145000  0.5 0.1257042255
H  H174  1  0.11873000  0.40194000  0.94996000  0.5 0.111132018
H  H175  1  0.54816000  0.09561000  0.61091000  0.5 0.111132018
H  H176  1  0.63261000  0.12385000  0.63855000  0.5 0.1257042255
H  H177  1  0.61873000  0.09806000  0.55004000  0.5 0.111132018
H  H178  1  0.04816000  0.59561000  0.11091000  0.5 0.111132018
H  H179  1  0.13261000  0.62385000  0.13855000  0.5 0.1257042255
H  H180  1  0.11873000  0.59806000  0.05004000  0.5 0.111132018
H  H181  1  0.45184000  0.90439000  0.61091000  0.5 0.111132018
H  H182  1  0.36739000  0.87615000  0.63855000  0.5 0.1257042255
H  H183  1  0.38127000  0.90194000  0.55004000  0.5 0.111132018
H  H184  1  0.95184000  0.40439000  0.11091000  0.5 0.111132018
H  H185  1  0.86739000  0.37615000  0.13855000  0.5 0.1257042255
H  H186  1  0.88127000  0.40194000  0.05004000  0.5 0.111132018
H  H187  1  0.45184000  0.09561000  0.38909000  0.5 0.111132018
H  H188  1  0.36739000  0.12385000  0.36145000  0.5 0.1257042255
H  H189  1  0.38127000  0.09806000  0.44996000  0.5 0.111132018
H  H190  1  0.95184000  0.59561000  0.88909000  0.5 0.111132018
H  H191  1  0.86739000  0.62385000  0.86145000  0.5 0.1257042255
H  H192  1  0.88127000  0.59806000  0.94996000  0.5 0.111132018
C  C1  1  0.37780000  0.11350000  0.67470000  1.0 -0.1069303885
C  C2  1  0.87780000  0.61350000  0.17470000  1.0 -0.1069303885
C  C3  1  0.62220000  0.88650000  0.67470000  1.0 -0.1069303885
C  C4  1  0.12220000  0.38650000  0.17470000  1.0 -0.1069303885
C  C5  1  0.62220000  0.11350000  0.32530000  1.0 -0.1069303885
C  C6  1  0.12220000  0.61350000  0.82530000  1.0 -0.1069303885
C  C7  1  0.37780000  0.88650000  0.32530000  1.0 -0.1069303885
C  C8  1  0.87780000  0.38650000  0.82530000  1.0 -0.1069303885
C  C9  1  0.67470000  0.37780000  0.11350000  1.0 -0.1069303885
C  C10  1  0.17470000  0.87780000  0.61350000  1.0 -0.1069303885
C  C11  1  0.67470000  0.62220000  0.88650000  1.0 -0.1069303885
C  C12  1  0.17470000  0.12220000  0.38650000  1.0 -0.1069303885
C  C13  1  0.32530000  0.62220000  0.11350000  1.0 -0.1069303885
C  C14  1  0.82530000  0.12220000  0.61350000  1.0 -0.1069303885
C  C15  1  0.32530000  0.37780000  0.88650000  1.0 -0.1069303885
C  C16  1  0.82530000  0.87780000  0.38650000  1.0 -0.1069303885
C  C17  1  0.11350000  0.67470000  0.37780000  1.0 -0.1069303885
C  C18  1  0.61350000  0.17470000  0.87780000  1.0 -0.1069303885
C  C19  1  0.88650000  0.67470000  0.62220000  1.0 -0.1069303885
C  C20  1  0.38650000  0.17470000  0.12220000  1.0 -0.1069303885
C  C21  1  0.11350000  0.32530000  0.62220000  1.0 -0.1069303885
C  C22  1  0.61350000  0.82530000  0.12220000  1.0 -0.1069303885
C  C23  1  0.88650000  0.32530000  0.37780000  1.0 -0.1069303885
C  C24  1  0.38650000  0.82530000  0.87780000  1.0 -0.1069303885
C  C25  1  0.11350000  0.37780000  0.67470000  1.0 -0.1069303885
C  C26  1  0.61350000  0.87780000  0.17470000  1.0 -0.1069303885
C  C27  1  0.88650000  0.62220000  0.67470000  1.0 -0.1069303885
C  C28  1  0.38650000  0.12220000  0.17470000  1.0 -0.1069303885
C  C29  1  0.11350000  0.62220000  0.32530000  1.0 -0.1069303885
C  C30  1  0.61350000  0.12220000  0.82530000  1.0 -0.1069303885
C  C31  1  0.88650000  0.37780000  0.32530000  1.0 -0.1069303885
C  C32  1  0.38650000  0.87780000  0.82530000  1.0 -0.1069303885
C  C33  1  0.37780000  0.67470000  0.11350000  1.0 -0.1069303885
C  C34  1  0.87780000  0.17470000  0.61350000  1.0 -0.1069303885
C  C35  1  0.62220000  0.67470000  0.88650000  1.0 -0.1069303885
C  C36  1  0.12220000  0.17470000  0.38650000  1.0 -0.1069303885
C  C37  1  0.62220000  0.32530000  0.11350000  1.0 -0.1069303885
C  C38  1  0.12220000  0.82530000  0.61350000  1.0 -0.1069303885
C  C39  1  0.37780000  0.32530000  0.88650000  1.0 -0.1069303885
C  C40  1  0.87780000  0.82530000  0.38650000  1.0 -0.1069303885
C  C41  1  0.67470000  0.11350000  0.37780000  1.0 -0.1069303885
C  C42  1  0.17470000  0.61350000  0.87780000  1.0 -0.1069303885
C  C43  1  0.67470000  0.88650000  0.62220000  1.0 -0.1069303885
C  C44  1  0.17470000  0.38650000  0.12220000  1.0 -0.1069303885
C  C45  1  0.32530000  0.11350000  0.62220000  1.0 -0.1069303885
C  C46  1  0.82530000  0.61350000  0.12220000  1.0 -0.1069303885
C  C47  1  0.32530000  0.88650000  0.37780000  1.0 -0.1069303885
C  C48  1  0.82530000  0.38650000  0.87780000  1.0 -0.1069303885
C  C49  1  0.37500000  0.99420000  0.62500000  1.0 0.3236663071
C  C50  1  0.39560000  0.91210000  0.60440000  1.0 -0.4940960466
C  C51  1  0.87500000  0.49420000  0.12500000  1.0 0.3236663071
C  C52  1  0.89560000  0.41210000  0.10440000  1.0 -0.4940960466
C  C53  1  0.62500000  0.00580000  0.62500000  1.0 0.3236663071
C  C54  1  0.60440000  0.08790000  0.60440000  1.0 -0.4940960466
C  C55  1  0.12500000  0.50580000  0.12500000  1.0 0.3236663071
C  C56  1  0.10440000  0.58790000  0.10440000  1.0 -0.4940960466
C  C57  1  0.62500000  0.99420000  0.37500000  1.0 0.3236663071
C  C58  1  0.60440000  0.91210000  0.39560000  1.0 -0.4940960466
C  C59  1  0.12500000  0.49420000  0.87500000  1.0 0.3236663071
C  C60  1  0.10440000  0.41210000  0.89560000  1.0 -0.4940960466
C  C61  1  0.37500000  0.00580000  0.37500000  1.0 0.3236663071
C  C62  1  0.39560000  0.08790000  0.39560000  1.0 -0.4940960466
C  C63  1  0.87500000  0.50580000  0.87500000  1.0 0.3236663071
C  C64  1  0.89560000  0.58790000  0.89560000  1.0 -0.4940960466
C  C65  1  0.62500000  0.37500000  0.99420000  1.0 0.3236663071
C  C66  1  0.60440000  0.39560000  0.91210000  1.0 -0.4940960466
C  C67  1  0.12500000  0.87500000  0.49420000  1.0 0.3236663071
C  C68  1  0.10440000  0.89560000  0.41210000  1.0 -0.4940960466
C  C69  1  0.62500000  0.62500000  0.00580000  1.0 0.3236663071
C  C70  1  0.60440000  0.60440000  0.08790000  1.0 -0.4940960466
C  C71  1  0.12500000  0.12500000  0.50580000  1.0 0.3236663071
C  C72  1  0.10440000  0.10440000  0.58790000  1.0 -0.4940960466
C  C73  1  0.37500000  0.62500000  0.99420000  1.0 0.3236663071
C  C74  1  0.39560000  0.60440000  0.91210000  1.0 -0.4940960466
C  C75  1  0.87500000  0.12500000  0.49420000  1.0 0.3236663071
C  C76  1  0.89560000  0.10440000  0.41210000  1.0 -0.4940960466
C  C77  1  0.37500000  0.37500000  0.00580000  1.0 0.3236663071
C  C78  1  0.39560000  0.39560000  0.08790000  1.0 -0.4940960466
C  C79  1  0.87500000  0.87500000  0.50580000  1.0 0.3236663071
C  C80  1  0.89560000  0.89560000  0.58790000  1.0 -0.4940960466
C  C81  1  0.99420000  0.62500000  0.37500000  1.0 0.3236663071
C  C82  1  0.91210000  0.60440000  0.39560000  1.0 -0.4940960466
C  C83  1  0.49420000  0.12500000  0.87500000  1.0 0.3236663071
C  C84  1  0.41210000  0.10440000  0.89560000  1.0 -0.4940960466
C  C85  1  0.00580000  0.62500000  0.62500000  1.0 0.3236663071
C  C86  1  0.08790000  0.60440000  0.60440000  1.0 -0.4940960466
C  C87  1  0.50580000  0.12500000  0.12500000  1.0 0.3236663071
C  C88  1  0.58790000  0.10440000  0.10440000  1.0 -0.4940960466
C  C89  1  0.99420000  0.37500000  0.62500000  1.0 0.3236663071
C  C90  1  0.91210000  0.39560000  0.60440000  1.0 -0.4940960466
C  C91  1  0.49420000  0.87500000  0.12500000  1.0 0.3236663071
C  C92  1  0.41210000  0.89560000  0.10440000  1.0 -0.4940960466
C  C93  1  0.00580000  0.37500000  0.37500000  1.0 0.3236663071
C  C94  1  0.08790000  0.39560000  0.39560000  1.0 -0.4940960466
C  C95  1  0.50580000  0.87500000  0.87500000  1.0 0.3236663071
C  C96  1  0.58790000  0.89560000  0.89560000  1.0 -0.4940960466
N  N1  1  0.41180000  0.03430000  0.67730000  1.0 -0.3988434527
N  N2  1  0.91180000  0.53430000  0.17730000  1.0 -0.3988434527
N  N3  1  0.58820000  0.96570000  0.67730000  1.0 -0.3988434527
N  N4  1  0.08820000  0.46570000  0.17730000  1.0 -0.3988434527
N  N5  1  0.58820000  0.03430000  0.32270000  1.0 -0.3988434527
N  N6  1  0.08820000  0.53430000  0.82270000  1.0 -0.3988434527
N  N7  1  0.41180000  0.96570000  0.32270000  1.0 -0.3988434527
N  N8  1  0.91180000  0.46570000  0.82270000  1.0 -0.3988434527
N  N9  1  0.67730000  0.41180000  0.03430000  1.0 -0.3988434527
N  N10  1  0.17730000  0.91180000  0.53430000  1.0 -0.3988434527
N  N11  1  0.67730000  0.58820000  0.96570000  1.0 -0.3988434527
N  N12  1  0.17730000  0.08820000  0.46570000  1.0 -0.3988434527
N  N13  1  0.32270000  0.58820000  0.03430000  1.0 -0.3988434527
N  N14  1  0.82270000  0.08820000  0.53430000  1.0 -0.3988434527
N  N15  1  0.32270000  0.41180000  0.96570000  1.0 -0.3988434527
N  N16  1  0.82270000  0.91180000  0.46570000  1.0 -0.3988434527
N  N17  1  0.03430000  0.67730000  0.41180000  1.0 -0.3988434527
N  N18  1  0.53430000  0.17730000  0.91180000  1.0 -0.3988434527
N  N19  1  0.96570000  0.67730000  0.58820000  1.0 -0.3988434527
N  N20  1  0.46570000  0.17730000  0.08820000  1.0 -0.3988434527
N  N21  1  0.03430000  0.32270000  0.58820000  1.0 -0.3988434527
N  N22  1  0.53430000  0.82270000  0.08820000  1.0 -0.3988434527
N  N23  1  0.96570000  0.32270000  0.41180000  1.0 -0.3988434527
N  N24  1  0.46570000  0.82270000  0.91180000  1.0 -0.3988434527
N  N25  1  0.03430000  0.41180000  0.67730000  1.0 -0.3988434527
N  N26  1  0.53430000  0.91180000  0.17730000  1.0 -0.3988434527
N  N27  1  0.96570000  0.58820000  0.67730000  1.0 -0.3988434527
N  N28  1  0.46570000  0.08820000  0.17730000  1.0 -0.3988434527
N  N29  1  0.03430000  0.58820000  0.32270000  1.0 -0.3988434527
N  N30  1  0.53430000  0.08820000  0.82270000  1.0 -0.3988434527
N  N31  1  0.96570000  0.41180000  0.32270000  1.0 -0.3988434527
N  N32  1  0.46570000  0.91180000  0.82270000  1.0 -0.3988434527
N  N33  1  0.41180000  0.67730000  0.03430000  1.0 -0.3988434527
N  N34  1  0.91180000  0.17730000  0.53430000  1.0 -0.3988434527
N  N35  1  0.58820000  0.67730000  0.96570000  1.0 -0.3988434527
N  N36  1  0.08820000  0.17730000  0.46570000  1.0 -0.3988434527
N  N37  1  0.58820000  0.32270000  0.03430000  1.0 -0.3988434527
N  N38  1  0.08820000  0.82270000  0.53430000  1.0 -0.3988434527
N  N39  1  0.41180000  0.32270000  0.96570000  1.0 -0.3988434527
N  N40  1  0.91180000  0.82270000  0.46570000  1.0 -0.3988434527
N  N41  1  0.67730000  0.03430000  0.41180000  1.0 -0.3988434527
N  N42  1  0.17730000  0.53430000  0.91180000  1.0 -0.3988434527
N  N43  1  0.67730000  0.96570000  0.58820000  1.0 -0.3988434527
N  N44  1  0.17730000  0.46570000  0.08820000  1.0 -0.3988434527
N  N45  1  0.32270000  0.03430000  0.58820000  1.0 -0.3988434527
N  N46  1  0.82270000  0.53430000  0.08820000  1.0 -0.3988434527
N  N47  1  0.32270000  0.96570000  0.41180000  1.0 -0.3988434527
N  N48  1  0.82270000  0.46570000  0.91180000  1.0 -0.3988434527
