# DDEC6 charges by PACMAN v1.1 (https://github.com/mtap-research/PACMAN-charge/)
data_c5qi00128e2_2_ASR_pacman
_symmetry_space_group_name_H-M   'P 1'
_cell_length_a   12.35800000
_cell_length_b   12.35800000
_cell_length_c   22.92880000
_cell_angle_alpha   90.00000000
_cell_angle_beta   90.00000000
_cell_angle_gamma   90.00000000
_symmetry_Int_Tables_number   1
_chemical_formula_structural   FeH20(C5N)6
_chemical_formula_sum   'Fe4 H80 C120 N24'
_cell_volume   3501.69009632
_cell_formula_units_Z   4
loop_
 _symmetry_equiv_pos_site_id
 _symmetry_equiv_pos_as_xyz
  1  'x, y, z'
loop_
 _atom_site_type_symbol
 _atom_site_label
 _atom_site_symmetry_multiplicity
 _atom_site_fract_x
 _atom_site_fract_y
 _atom_site_fract_z
 _atom_site_occupancy
 _atom_site_charge
Fe  Fe1  1  0.00000000  0.00000000  0.00000000  1.0 0.6973748889
Fe  Fe2  1  0.00000000  0.00000000  0.50000000  1.0 0.6973748889
Fe  Fe3  1  0.50000000  0.50000000  0.50000000  1.0 0.6973748889
Fe  Fe4  1  0.50000000  0.50000000  0.00000000  1.0 0.6973748889
H  H1  1  0.18210000  0.54930000  0.00000000  1.0 0.113973031
H  H2  1  0.45070000  0.18210000  0.00000000  1.0 0.113973031
H  H3  1  0.81790000  0.45070000  0.00000000  1.0 0.113973031
H  H4  1  0.54930000  0.81790000  0.00000000  1.0 0.113973031
H  H5  1  0.18210000  0.45070000  0.50000000  1.0 0.113973031
H  H6  1  0.54930000  0.18210000  0.50000000  1.0 0.113973031
H  H7  1  0.81790000  0.54930000  0.50000000  1.0 0.113973031
H  H8  1  0.45070000  0.81790000  0.50000000  1.0 0.113973031
H  H9  1  0.68210000  0.04930000  0.50000000  1.0 0.113973031
H  H10  1  0.95070000  0.68210000  0.50000000  1.0 0.113973031
H  H11  1  0.31790000  0.95070000  0.50000000  1.0 0.113973031
H  H12  1  0.04930000  0.31790000  0.50000000  1.0 0.113973031
H  H13  1  0.68210000  0.95070000  0.00000000  1.0 0.113973031
H  H14  1  0.04930000  0.68210000  0.00000000  1.0 0.113973031
H  H15  1  0.31790000  0.04930000  0.00000000  1.0 0.113973031
H  H16  1  0.95070000  0.31790000  0.00000000  1.0 0.113973031
H  H17  1  0.96480000  0.15350000  0.10370000  1.0 0.099798103
H  H18  1  0.84650000  0.96480000  0.10370000  1.0 0.099798103
H  H19  1  0.03520000  0.84650000  0.10370000  1.0 0.099798103
H  H20  1  0.15350000  0.03520000  0.10370000  1.0 0.099798103
H  H21  1  0.96480000  0.84650000  0.39630000  1.0 0.099798103
H  H22  1  0.15350000  0.96480000  0.39630000  1.0 0.099798103
H  H23  1  0.03520000  0.15350000  0.39630000  1.0 0.099798103
H  H24  1  0.84650000  0.03520000  0.39630000  1.0 0.099798103
H  H25  1  0.46480000  0.65350000  0.60370000  1.0 0.099798103
H  H26  1  0.34650000  0.46480000  0.60370000  1.0 0.099798103
H  H27  1  0.53520000  0.34650000  0.60370000  1.0 0.099798103
H  H28  1  0.65350000  0.53520000  0.60370000  1.0 0.099798103
H  H29  1  0.46480000  0.34650000  0.89630000  1.0 0.099798103
H  H30  1  0.65350000  0.46480000  0.89630000  1.0 0.099798103
H  H31  1  0.53520000  0.65350000  0.89630000  1.0 0.099798103
H  H32  1  0.34650000  0.53520000  0.89630000  1.0 0.099798103
H  H33  1  0.03520000  0.84650000  0.89630000  1.0 0.099798103
H  H34  1  0.15350000  0.03520000  0.89630000  1.0 0.099798103
H  H35  1  0.96480000  0.15350000  0.89630000  1.0 0.099798103
H  H36  1  0.84650000  0.96480000  0.89630000  1.0 0.099798103
H  H37  1  0.03520000  0.15350000  0.60370000  1.0 0.099798103
H  H38  1  0.84650000  0.03520000  0.60370000  1.0 0.099798103
H  H39  1  0.96480000  0.84650000  0.60370000  1.0 0.099798103
H  H40  1  0.15350000  0.96480000  0.60370000  1.0 0.099798103
H  H41  1  0.53520000  0.34650000  0.39630000  1.0 0.099798103
H  H42  1  0.65350000  0.53520000  0.39630000  1.0 0.099798103
H  H43  1  0.46480000  0.65350000  0.39630000  1.0 0.099798103
H  H44  1  0.34650000  0.46480000  0.39630000  1.0 0.099798103
H  H45  1  0.53520000  0.65350000  0.10370000  1.0 0.099798103
H  H46  1  0.34650000  0.53520000  0.10370000  1.0 0.099798103
H  H47  1  0.46480000  0.34650000  0.10370000  1.0 0.099798103
H  H48  1  0.65350000  0.46480000  0.10370000  1.0 0.099798103
H  H49  1  0.96190000  0.15570000  0.20730000  1.0 0.09156796
H  H50  1  0.84430000  0.96190000  0.20730000  1.0 0.09156796
H  H51  1  0.03810000  0.84430000  0.20730000  1.0 0.09156796
H  H52  1  0.15570000  0.03810000  0.20730000  1.0 0.09156796
H  H53  1  0.96190000  0.84430000  0.29270000  1.0 0.09156796
H  H54  1  0.15570000  0.96190000  0.29270000  1.0 0.09156796
H  H55  1  0.03810000  0.15570000  0.29270000  1.0 0.09156796
H  H56  1  0.84430000  0.03810000  0.29270000  1.0 0.09156796
H  H57  1  0.46190000  0.65570000  0.70730000  1.0 0.09156796
H  H58  1  0.34430000  0.46190000  0.70730000  1.0 0.09156796
H  H59  1  0.53810000  0.34430000  0.70730000  1.0 0.09156796
H  H60  1  0.65570000  0.53810000  0.70730000  1.0 0.09156796
H  H61  1  0.46190000  0.34430000  0.79270000  1.0 0.09156796
H  H62  1  0.65570000  0.46190000  0.79270000  1.0 0.09156796
H  H63  1  0.53810000  0.65570000  0.79270000  1.0 0.09156796
H  H64  1  0.34430000  0.53810000  0.79270000  1.0 0.09156796
H  H65  1  0.03810000  0.84430000  0.79270000  1.0 0.09156796
H  H66  1  0.15570000  0.03810000  0.79270000  1.0 0.09156796
H  H67  1  0.96190000  0.15570000  0.79270000  1.0 0.09156796
H  H68  1  0.84430000  0.96190000  0.79270000  1.0 0.09156796
H  H69  1  0.03810000  0.15570000  0.70730000  1.0 0.09156796
H  H70  1  0.84430000  0.03810000  0.70730000  1.0 0.09156796
H  H71  1  0.96190000  0.84430000  0.70730000  1.0 0.09156796
H  H72  1  0.15570000  0.96190000  0.70730000  1.0 0.09156796
H  H73  1  0.53810000  0.34430000  0.29270000  1.0 0.09156796
H  H74  1  0.65570000  0.53810000  0.29270000  1.0 0.09156796
H  H75  1  0.46190000  0.65570000  0.29270000  1.0 0.09156796
H  H76  1  0.34430000  0.46190000  0.29270000  1.0 0.09156796
H  H77  1  0.53810000  0.65570000  0.20730000  1.0 0.09156796
H  H78  1  0.34430000  0.53810000  0.20730000  1.0 0.09156796
H  H79  1  0.46190000  0.34430000  0.20730000  1.0 0.09156796
H  H80  1  0.65570000  0.46190000  0.20730000  1.0 0.09156796
C  C1  1  0.13498000  0.22685000  0.00000000  1.0 0.2681965318
C  C2  1  0.77315000  0.13498000  0.00000000  1.0 0.2681965318
C  C3  1  0.86502000  0.77315000  0.00000000  1.0 0.2681965318
C  C4  1  0.22685000  0.86502000  0.00000000  1.0 0.2681965318
C  C5  1  0.13498000  0.77315000  0.50000000  1.0 0.2681965318
C  C6  1  0.22685000  0.13498000  0.50000000  1.0 0.2681965318
C  C7  1  0.86502000  0.22685000  0.50000000  1.0 0.2681965318
C  C8  1  0.77315000  0.86502000  0.50000000  1.0 0.2681965318
C  C9  1  0.63498000  0.72685000  0.50000000  1.0 0.2681965318
C  C10  1  0.27315000  0.63498000  0.50000000  1.0 0.2681965318
C  C11  1  0.36502000  0.27315000  0.50000000  1.0 0.2681965318
C  C12  1  0.72685000  0.36502000  0.50000000  1.0 0.2681965318
C  C13  1  0.63498000  0.27315000  0.00000000  1.0 0.2681965318
C  C14  1  0.72685000  0.63498000  0.00000000  1.0 0.2681965318
C  C15  1  0.36502000  0.72685000  0.00000000  1.0 0.2681965318
C  C16  1  0.27315000  0.36502000  0.00000000  1.0 0.2681965318
C  C17  1  0.16501000  0.33499000  0.00000000  1.0 -0.202673516
C  C18  1  0.66501000  0.16501000  0.00000000  1.0 -0.202673516
C  C19  1  0.83499000  0.66501000  0.00000000  1.0 -0.202673516
C  C20  1  0.33499000  0.83499000  0.00000000  1.0 -0.202673516
C  C21  1  0.16501000  0.66501000  0.50000000  1.0 -0.202673516
C  C22  1  0.33499000  0.16501000  0.50000000  1.0 -0.202673516
C  C23  1  0.83499000  0.33499000  0.50000000  1.0 -0.202673516
C  C24  1  0.66501000  0.83499000  0.50000000  1.0 -0.202673516
C  C25  1  0.08095000  0.41905000  0.00000000  1.0 0.09156796
C  C26  1  0.58095000  0.08095000  0.00000000  1.0 0.09156796
C  C27  1  0.91905000  0.58095000  0.00000000  1.0 0.09156796
C  C28  1  0.41905000  0.91905000  0.00000000  1.0 0.09156796
C  C29  1  0.08095000  0.58095000  0.50000000  1.0 0.09156796
C  C30  1  0.41905000  0.08095000  0.50000000  1.0 0.09156796
C  C31  1  0.91905000  0.41905000  0.50000000  1.0 0.09156796
C  C32  1  0.58095000  0.91905000  0.50000000  1.0 0.09156796
C  C33  1  0.10800000  0.52870000  0.00000000  1.0 -0.1740591441
C  C34  1  0.47130000  0.10800000  0.00000000  1.0 -0.1740591441
C  C35  1  0.89200000  0.47130000  0.00000000  1.0 -0.1740591441
C  C36  1  0.52870000  0.89200000  0.00000000  1.0 -0.1740591441
C  C37  1  0.10800000  0.47130000  0.50000000  1.0 -0.1740591441
C  C38  1  0.52870000  0.10800000  0.50000000  1.0 -0.1740591441
C  C39  1  0.89200000  0.52870000  0.50000000  1.0 -0.1740591441
C  C40  1  0.47130000  0.89200000  0.50000000  1.0 -0.1740591441
C  C41  1  0.60800000  0.02870000  0.50000000  1.0 -0.1740591441
C  C42  1  0.97130000  0.60800000  0.50000000  1.0 -0.1740591441
C  C43  1  0.39200000  0.97130000  0.50000000  1.0 -0.1740591441
C  C44  1  0.02870000  0.39200000  0.50000000  1.0 -0.1740591441
C  C45  1  0.60800000  0.97130000  0.00000000  1.0 -0.1740591441
C  C46  1  0.02870000  0.60800000  0.00000000  1.0 -0.1740591441
C  C47  1  0.39200000  0.02870000  0.00000000  1.0 -0.1740591441
C  C48  1  0.97130000  0.39200000  0.00000000  1.0 -0.1740591441
C  C49  1  0.97940000  0.08870000  0.12450000  1.0 0.0041164232
C  C50  1  0.91130000  0.97940000  0.12450000  1.0 0.0041164232
C  C51  1  0.02060000  0.91130000  0.12450000  1.0 0.0041164232
C  C52  1  0.08870000  0.02060000  0.12450000  1.0 0.0041164232
C  C53  1  0.97940000  0.91130000  0.37550000  1.0 0.0041164232
C  C54  1  0.08870000  0.97940000  0.37550000  1.0 0.0041164232
C  C55  1  0.02060000  0.08870000  0.37550000  1.0 0.0041164232
C  C56  1  0.91130000  0.02060000  0.37550000  1.0 0.0041164232
C  C57  1  0.47940000  0.58870000  0.62450000  1.0 0.0041164232
C  C58  1  0.41130000  0.47940000  0.62450000  1.0 0.0041164232
C  C59  1  0.52060000  0.41130000  0.62450000  1.0 0.0041164232
C  C60  1  0.58870000  0.52060000  0.62450000  1.0 0.0041164232
C  C61  1  0.47940000  0.41130000  0.87550000  1.0 0.0041164232
C  C62  1  0.58870000  0.47940000  0.87550000  1.0 0.0041164232
C  C63  1  0.52060000  0.58870000  0.87550000  1.0 0.0041164232
C  C64  1  0.41130000  0.52060000  0.87550000  1.0 0.0041164232
C  C65  1  0.02060000  0.91130000  0.87550000  1.0 0.0041164232
C  C66  1  0.08870000  0.02060000  0.87550000  1.0 0.0041164232
C  C67  1  0.97940000  0.08870000  0.87550000  1.0 0.0041164232
C  C68  1  0.91130000  0.97940000  0.87550000  1.0 0.0041164232
C  C69  1  0.02060000  0.08870000  0.62450000  1.0 0.0041164232
C  C70  1  0.91130000  0.02060000  0.62450000  1.0 0.0041164232
C  C71  1  0.97940000  0.91130000  0.62450000  1.0 0.0041164232
C  C72  1  0.08870000  0.97940000  0.62450000  1.0 0.0041164232
C  C73  1  0.52060000  0.41130000  0.37550000  1.0 0.0041164232
C  C74  1  0.58870000  0.52060000  0.37550000  1.0 0.0041164232
C  C75  1  0.47940000  0.58870000  0.37550000  1.0 0.0041164232
C  C76  1  0.41130000  0.47940000  0.37550000  1.0 0.0041164232
C  C77  1  0.52060000  0.58870000  0.12450000  1.0 0.0041164232
C  C78  1  0.41130000  0.52060000  0.12450000  1.0 0.0041164232
C  C79  1  0.47940000  0.41130000  0.12450000  1.0 0.0041164232
C  C80  1  0.58870000  0.47940000  0.12450000  1.0 0.0041164232
C  C81  1  0.97820000  0.09040000  0.18730000  1.0 -0.0994979667
C  C82  1  0.90960000  0.97820000  0.18730000  1.0 -0.0994979667
C  C83  1  0.02180000  0.90960000  0.18730000  1.0 -0.0994979667
C  C84  1  0.09040000  0.02180000  0.18730000  1.0 -0.0994979667
C  C85  1  0.97820000  0.90960000  0.31270000  1.0 -0.0994979667
C  C86  1  0.09040000  0.97820000  0.31270000  1.0 -0.0994979667
C  C87  1  0.02180000  0.09040000  0.31270000  1.0 -0.0994979667
C  C88  1  0.90960000  0.02180000  0.31270000  1.0 -0.0994979667
C  C89  1  0.47820000  0.59040000  0.68730000  1.0 -0.0994979667
C  C90  1  0.40960000  0.47820000  0.68730000  1.0 -0.0994979667
C  C91  1  0.52180000  0.40960000  0.68730000  1.0 -0.0994979667
C  C92  1  0.59040000  0.52180000  0.68730000  1.0 -0.0994979667
C  C93  1  0.47820000  0.40960000  0.81270000  1.0 -0.0994979667
C  C94  1  0.59040000  0.47820000  0.81270000  1.0 -0.0994979667
C  C95  1  0.52180000  0.59040000  0.81270000  1.0 -0.0994979667
C  C96  1  0.40960000  0.52180000  0.81270000  1.0 -0.0994979667
C  C97  1  0.02180000  0.90960000  0.81270000  1.0 -0.0994979667
C  C98  1  0.09040000  0.02180000  0.81270000  1.0 -0.0994979667
C  C99  1  0.97820000  0.09040000  0.81270000  1.0 -0.0994979667
C  C100  1  0.90960000  0.97820000  0.81270000  1.0 -0.0994979667
C  C101  1  0.02180000  0.09040000  0.68730000  1.0 -0.0994979667
C  C102  1  0.90960000  0.02180000  0.68730000  1.0 -0.0994979667
C  C103  1  0.97820000  0.90960000  0.68730000  1.0 -0.0994979667
C  C104  1  0.09040000  0.97820000  0.68730000  1.0 -0.0994979667
C  C105  1  0.52180000  0.40960000  0.31270000  1.0 -0.0994979667
C  C106  1  0.59040000  0.52180000  0.31270000  1.0 -0.0994979667
C  C107  1  0.47820000  0.59040000  0.31270000  1.0 -0.0994979667
C  C108  1  0.40960000  0.47820000  0.31270000  1.0 -0.0994979667
C  C109  1  0.52180000  0.59040000  0.18730000  1.0 -0.0994979667
C  C110  1  0.40960000  0.52180000  0.18730000  1.0 -0.0994979667
C  C111  1  0.47820000  0.40960000  0.18730000  1.0 -0.0994979667
C  C112  1  0.59040000  0.47820000  0.18730000  1.0 -0.0994979667
C  C113  1  0.00000000  0.00000000  0.21780000  1.0 0.0095413778
C  C114  1  0.00000000  0.00000000  0.28220000  1.0 0.0095413778
C  C115  1  0.50000000  0.50000000  0.71780000  1.0 0.0095413778
C  C116  1  0.50000000  0.50000000  0.78220000  1.0 0.0095413778
C  C117  1  0.00000000  0.00000000  0.78220000  1.0 0.0095413778
C  C118  1  0.00000000  0.00000000  0.71780000  1.0 0.0095413778
C  C119  1  0.50000000  0.50000000  0.28220000  1.0 0.0095413778
C  C120  1  0.50000000  0.50000000  0.21780000  1.0 0.0095413778
N  N1  1  0.10078000  0.14069000  0.00000000  1.0 -0.4545710299
N  N2  1  0.85931000  0.10078000  0.00000000  1.0 -0.4545710299
N  N3  1  0.89922000  0.85931000  0.00000000  1.0 -0.4553283665
N  N4  1  0.14069000  0.89922000  0.00000000  1.0 -0.4545710299
N  N5  1  0.10078000  0.85931000  0.50000000  1.0 -0.4545710299
N  N6  1  0.14069000  0.10078000  0.50000000  1.0 -0.4545710299
N  N7  1  0.89922000  0.14069000  0.50000000  1.0 -0.4545710299
N  N8  1  0.85931000  0.89922000  0.50000000  1.0 -0.4545710299
N  N9  1  0.60078000  0.64069000  0.50000000  1.0 -0.4545710299
N  N10  1  0.35931000  0.60078000  0.50000000  1.0 -0.4545710299
N  N11  1  0.39922000  0.35931000  0.50000000  1.0 -0.4545710299
N  N12  1  0.64069000  0.39922000  0.50000000  1.0 -0.4545710299
N  N13  1  0.60078000  0.35931000  0.00000000  1.0 -0.4545710299
N  N14  1  0.64069000  0.60078000  0.00000000  1.0 -0.4545710299
N  N15  1  0.39922000  0.64069000  0.00000000  1.0 -0.4545710299
N  N16  1  0.35931000  0.39922000  0.00000000  1.0 -0.4545710299
N  N17  1  0.00000000  0.00000000  0.09559000  1.0 -0.1380454552
N  N18  1  0.00000000  0.00000000  0.40441000  1.0 -0.1380454552
N  N19  1  0.50000000  0.50000000  0.59559000  1.0 -0.1380454552
N  N20  1  0.50000000  0.50000000  0.90441000  1.0 -0.1380454552
N  N21  1  0.00000000  0.00000000  0.90441000  1.0 -0.1380454552
N  N22  1  0.00000000  0.00000000  0.59559000  1.0 -0.1380454552
N  N23  1  0.50000000  0.50000000  0.40441000  1.0 -0.1380454552
N  N24  1  0.50000000  0.50000000  0.09559000  1.0 -0.1380454552
