# DDEC6 charges by PACMAN v1.1 (https://github.com/mtap-research/PACMAN-charge/)
data_c5dt03710g2_11_FSR_pacman
_symmetry_space_group_name_H-M   'P 1'
_cell_length_a   14.34600000
_cell_length_b   16.50900000
_cell_length_c   9.71400000
_cell_angle_alpha   90.00000000
_cell_angle_beta   90.00000000
_cell_angle_gamma   90.00000000
_symmetry_Int_Tables_number   1
_chemical_formula_structural   ZnH9C11NO4
_chemical_formula_sum   'Zn4 H36 C44 N4 O16'
_cell_volume   2300.64543940
_cell_formula_units_Z   4
loop_
 _symmetry_equiv_pos_site_id
 _symmetry_equiv_pos_as_xyz
  1  'x, y, z'
loop_
 _atom_site_type_symbol
 _atom_site_label
 _atom_site_symmetry_multiplicity
 _atom_site_fract_x
 _atom_site_fract_y
 _atom_site_fract_z
 _atom_site_occupancy
 _atom_site_charge
Zn  Zn1  1  0.00000000  0.00000000  0.34765000  1.0 0.7658619636
Zn  Zn2  1  0.00000000  0.00000000  0.65235000  1.0 0.7658619636
Zn  Zn3  1  0.50000000  0.50000000  0.34765000  1.0 0.7658619636
Zn  Zn4  1  0.50000000  0.50000000  0.65235000  1.0 0.7658619636
H  H1  1  0.19840000  0.19650000  0.29540000  1.0 0.1229684211
H  H2  1  0.80160000  0.80350000  0.29540000  1.0 0.1229684211
H  H3  1  0.80160000  0.19650000  0.70460000  1.0 0.1229684211
H  H4  1  0.19840000  0.80350000  0.70460000  1.0 0.1229684211
H  H5  1  0.69840000  0.69650000  0.29540000  1.0 0.1229684211
H  H6  1  0.30160000  0.30350000  0.29540000  1.0 0.1229684211
H  H7  1  0.30160000  0.69650000  0.70460000  1.0 0.1229684211
H  H8  1  0.69840000  0.30350000  0.70460000  1.0 0.1229684211
H  H9  1  0.80160000  0.80350000  0.70460000  1.0 0.1229684211
H  H10  1  0.19840000  0.19650000  0.70460000  1.0 0.1229684211
H  H11  1  0.19840000  0.80350000  0.29540000  1.0 0.1229684211
H  H12  1  0.80160000  0.19650000  0.29540000  1.0 0.1229684211
H  H13  1  0.30160000  0.30350000  0.70460000  1.0 0.1229684211
H  H14  1  0.69840000  0.69650000  0.70460000  1.0 0.1229684211
H  H15  1  0.69840000  0.30350000  0.29540000  1.0 0.1229684211
H  H16  1  0.30160000  0.69650000  0.29540000  1.0 0.1229684211
H  H17  1  0.05470000  0.10990000  0.11200000  0.25 0.0933661664
H  H18  1  0.94530000  0.89010000  0.11200000  0.25 0.0933661664
H  H19  1  0.94530000  0.10990000  0.88800000  0.25 0.0933661664
H  H20  1  0.05470000  0.89010000  0.88800000  0.25 0.0933661664
H  H21  1  0.55470000  0.60990000  0.11200000  0.25 0.0933661664
H  H22  1  0.44530000  0.39010000  0.11200000  0.25 0.0933661664
H  H23  1  0.44530000  0.60990000  0.88800000  0.25 0.0933661664
H  H24  1  0.55470000  0.39010000  0.88800000  0.25 0.0933661664
H  H25  1  0.94530000  0.89010000  0.88800000  0.25 0.0933661664
H  H26  1  0.05470000  0.10990000  0.88800000  0.25 0.0933661664
H  H27  1  0.05470000  0.89010000  0.11200000  0.25 0.0933661664
H  H28  1  0.94530000  0.10990000  0.11200000  0.25 0.0933661664
H  H29  1  0.44530000  0.39010000  0.88800000  0.25 0.0933661664
H  H30  1  0.55470000  0.60990000  0.88800000  0.25 0.0933661664
H  H31  1  0.55470000  0.39010000  0.11200000  0.25 0.0933661664
H  H32  1  0.44530000  0.60990000  0.11200000  0.25 0.0933661664
H  H33  1  0.13760000  0.01540000  0.11140000  0.5 0.0831566358
H  H34  1  0.86240000  0.98460000  0.11140000  0.5 0.0831566358
H  H35  1  0.86240000  0.01540000  0.88860000  0.5 0.0831566358
H  H36  1  0.13760000  0.98460000  0.88860000  0.5 0.0831566358
H  H37  1  0.63760000  0.51540000  0.11140000  0.5 0.0831566358
H  H38  1  0.36240000  0.48460000  0.11140000  0.5 0.0831566358
H  H39  1  0.36240000  0.51540000  0.88860000  0.5 0.0831566358
H  H40  1  0.63760000  0.48460000  0.88860000  0.5 0.0831566358
H  H41  1  0.86240000  0.98460000  0.88860000  0.5 0.0831566358
H  H42  1  0.13760000  0.01540000  0.88860000  0.5 0.0831566358
H  H43  1  0.13760000  0.98460000  0.11140000  0.5 0.0831566358
H  H44  1  0.86240000  0.01540000  0.11140000  0.5 0.0831566358
H  H45  1  0.36240000  0.48460000  0.88860000  0.5 0.0831566358
H  H46  1  0.63760000  0.51540000  0.88860000  0.5 0.0831566358
H  H47  1  0.63760000  0.48460000  0.11140000  0.5 0.0831566358
H  H48  1  0.36240000  0.51540000  0.11140000  0.5 0.0831566358
H  H49  1  0.08210000  0.09720000  0.11140000  0.5 0.0933661664
H  H50  1  0.91790000  0.90280000  0.11140000  0.5 0.0933661664
H  H51  1  0.91790000  0.09720000  0.88860000  0.5 0.0933661664
H  H52  1  0.08210000  0.90280000  0.88860000  0.5 0.0933661664
H  H53  1  0.58210000  0.59720000  0.11140000  0.5 0.0933661664
H  H54  1  0.41790000  0.40280000  0.11140000  0.5 0.0933661664
H  H55  1  0.41790000  0.59720000  0.88860000  0.5 0.0933661664
H  H56  1  0.58210000  0.40280000  0.88860000  0.5 0.0933661664
H  H57  1  0.91790000  0.90280000  0.88860000  0.5 0.0933661664
H  H58  1  0.08210000  0.09720000  0.88860000  0.5 0.0933661664
H  H59  1  0.08210000  0.90280000  0.11140000  0.5 0.0933661664
H  H60  1  0.91790000  0.09720000  0.11140000  0.5 0.0933661664
H  H61  1  0.41790000  0.40280000  0.88860000  0.5 0.0933661664
H  H62  1  0.58210000  0.59720000  0.88860000  0.5 0.0933661664
H  H63  1  0.58210000  0.40280000  0.11140000  0.5 0.0933661664
H  H64  1  0.41790000  0.59720000  0.11140000  0.5 0.0933661664
C  C1  1  0.12300000  0.11300000  0.50000000  1.0 0.5599830502
C  C2  1  0.87700000  0.88700000  0.50000000  1.0 0.5599830502
C  C3  1  0.87700000  0.11300000  0.50000000  1.0 0.5599830502
C  C4  1  0.12300000  0.88700000  0.50000000  1.0 0.5599830502
C  C5  1  0.62300000  0.61300000  0.50000000  1.0 0.5599830502
C  C6  1  0.37700000  0.38700000  0.50000000  1.0 0.5599830502
C  C7  1  0.37700000  0.61300000  0.50000000  1.0 0.5599830502
C  C8  1  0.62300000  0.38700000  0.50000000  1.0 0.5599830502
C  C9  1  0.18820000  0.18390000  0.50000000  1.0 -0.0093553869
C  C10  1  0.81180000  0.81610000  0.50000000  1.0 -0.0093553869
C  C11  1  0.81180000  0.18390000  0.50000000  1.0 -0.0093553869
C  C12  1  0.18820000  0.81610000  0.50000000  1.0 -0.0093553869
C  C13  1  0.68820000  0.68390000  0.50000000  1.0 -0.0093553869
C  C14  1  0.31180000  0.31610000  0.50000000  1.0 -0.0093553869
C  C15  1  0.31180000  0.68390000  0.50000000  1.0 -0.0093553869
C  C16  1  0.68820000  0.31610000  0.50000000  1.0 -0.0093553869
C  C17  1  0.21910000  0.21750000  0.37870000  1.0 -0.1208392741
C  C18  1  0.78090000  0.78250000  0.37870000  1.0 -0.1208392741
C  C19  1  0.78090000  0.21750000  0.62130000  1.0 -0.1208392741
C  C20  1  0.21910000  0.78250000  0.62130000  1.0 -0.1208392741
C  C21  1  0.71910000  0.71750000  0.37870000  1.0 -0.1208392741
C  C22  1  0.28090000  0.28250000  0.37870000  1.0 -0.1208392741
C  C23  1  0.28090000  0.71750000  0.62130000  1.0 -0.1208392741
C  C24  1  0.71910000  0.28250000  0.62130000  1.0 -0.1208392741
C  C25  1  0.78090000  0.78250000  0.62130000  1.0 -0.1208392741
C  C26  1  0.21910000  0.21750000  0.62130000  1.0 -0.1208392741
C  C27  1  0.21910000  0.78250000  0.37870000  1.0 -0.1208392741
C  C28  1  0.78090000  0.21750000  0.37870000  1.0 -0.1208392741
C  C29  1  0.28090000  0.28250000  0.62130000  1.0 -0.1208392741
C  C30  1  0.71910000  0.71750000  0.62130000  1.0 -0.1208392741
C  C31  1  0.71910000  0.28250000  0.37870000  1.0 -0.1208392741
C  C32  1  0.28090000  0.71750000  0.37870000  1.0 -0.1208392741
C  C33  1  0.00000000  0.08140000  0.07900000  0.5 -0.1208392741
C  C34  1  0.00000000  0.91860000  0.07900000  0.5 -0.1208392741
C  C35  1  0.00000000  0.08140000  0.92100000  0.5 -0.1208392741
C  C36  1  0.00000000  0.91860000  0.92100000  0.5 -0.1208392741
C  C37  1  0.50000000  0.58140000  0.07900000  0.5 -0.1208392741
C  C38  1  0.50000000  0.41860000  0.07900000  0.5 -0.1208392741
C  C39  1  0.50000000  0.58140000  0.92100000  0.5 -0.1208392741
C  C40  1  0.50000000  0.41860000  0.92100000  0.5 -0.1208392741
C  C41  1  0.08150000  0.04180000  0.07840000  0.5 -0.1208392741
C  C42  1  0.91850000  0.95820000  0.07840000  0.5 -0.1208392741
C  C43  1  0.91850000  0.04180000  0.92160000  0.5 -0.1208392741
C  C44  1  0.08150000  0.95820000  0.92160000  0.5 -0.1208392741
C  C45  1  0.58150000  0.54180000  0.07840000  0.5 -0.1208392741
C  C46  1  0.41850000  0.45820000  0.07840000  0.5 -0.1208392741
C  C47  1  0.41850000  0.54180000  0.92160000  0.5 -0.1208392741
C  C48  1  0.58150000  0.45820000  0.92160000  0.5 -0.1208392741
C  C49  1  0.91850000  0.95820000  0.92160000  0.5 -0.1208392741
C  C50  1  0.08150000  0.04180000  0.92160000  0.5 -0.1208392741
C  C51  1  0.08150000  0.95820000  0.07840000  0.5 -0.1208392741
C  C52  1  0.91850000  0.04180000  0.07840000  0.5 -0.1208392741
C  C53  1  0.41850000  0.45820000  0.92160000  0.5 -0.1208392741
C  C54  1  0.58150000  0.54180000  0.92160000  0.5 -0.1208392741
C  C55  1  0.58150000  0.45820000  0.07840000  0.5 -0.1208392741
C  C56  1  0.41850000  0.54180000  0.07840000  0.5 -0.1208392741
N  N1  1  0.00000000  0.00000000  0.13380000  1.0 -0.0856138488
N  N2  1  0.00000000  0.00000000  0.86620000  1.0 -0.0856138488
N  N3  1  0.50000000  0.50000000  0.13380000  1.0 -0.0856138488
N  N4  1  0.50000000  0.50000000  0.86620000  1.0 -0.0856138488
O  O1  1  0.09670000  0.08671000  0.38610000  1.0 -0.5361350647
O  O2  1  0.90330000  0.91329000  0.38610000  1.0 -0.5361350647
O  O3  1  0.90330000  0.08671000  0.61390000  1.0 -0.5361350647
O  O4  1  0.09670000  0.91329000  0.61390000  1.0 -0.5361350647
O  O5  1  0.59670000  0.58671000  0.38610000  1.0 -0.5361350647
O  O6  1  0.40330000  0.41329000  0.38610000  1.0 -0.5361350647
O  O7  1  0.40330000  0.58671000  0.61390000  1.0 -0.5361350647
O  O8  1  0.59670000  0.41329000  0.61390000  1.0 -0.5361350647
O  O9  1  0.90330000  0.91329000  0.61390000  1.0 -0.5361350647
O  O10  1  0.09670000  0.08671000  0.61390000  1.0 -0.5361350647
O  O11  1  0.09670000  0.91329000  0.38610000  1.0 -0.5361350647
O  O12  1  0.90330000  0.08671000  0.38610000  1.0 -0.5361350647
O  O13  1  0.40330000  0.41329000  0.61390000  1.0 -0.5361350647
O  O14  1  0.59670000  0.58671000  0.61390000  1.0 -0.5361350647
O  O15  1  0.59670000  0.41329000  0.38610000  1.0 -0.5361350647
O  O16  1  0.40330000  0.58671000  0.38610000  1.0 -0.5361350647
