# DDEC6 charges by PACMAN v1.1 (https://github.com/mtap-research/PACMAN-charge/)
data_ja4012707_si_005_2_FSR_pacman
_symmetry_space_group_name_H-M   'P 1'
_cell_length_a   12.46010000
_cell_length_b   12.46010000
_cell_length_c   12.46010000
_cell_angle_alpha   90.00000000
_cell_angle_beta   90.00000000
_cell_angle_gamma   90.00000000
_symmetry_Int_Tables_number   1
_chemical_formula_structural   Zn3(CN)7
_chemical_formula_sum   'Zn12 C28 N28'
_cell_volume   1934.48151185
_cell_formula_units_Z   4
loop_
 _symmetry_equiv_pos_site_id
 _symmetry_equiv_pos_as_xyz
  1  'x, y, z'
loop_
 _atom_site_type_symbol
 _atom_site_label
 _atom_site_symmetry_multiplicity
 _atom_site_fract_x
 _atom_site_fract_y
 _atom_site_fract_z
 _atom_site_occupancy
 _atom_site_charge
Zn  Zn1  1  0.89862000  0.89862000  0.89862000  1.0 0.8042838542
Zn  Zn2  1  0.89862000  0.60138000  0.39862000  1.0 0.8042838542
Zn  Zn3  1  0.39862000  0.89862000  0.60138000  1.0 0.8065845736
Zn  Zn4  1  0.39862000  0.60138000  0.10138000  1.0 0.8065845736
Zn  Zn5  1  0.10138000  0.39862000  0.60138000  1.0 0.8065845736
Zn  Zn6  1  0.10138000  0.10138000  0.10138000  1.0 0.8065845736
Zn  Zn7  1  0.60138000  0.39862000  0.89862000  1.0 0.8042838542
Zn  Zn8  1  0.60138000  0.10138000  0.39862000  1.0 0.8065845736
Zn  Zn9  1  0.50000000  0.50000000  0.50000000  1.0 -0.2982922426
Zn  Zn10  1  0.50000000  0.00000000  0.00000000  1.0 -0.2982922426
Zn  Zn11  1  0.00000000  0.50000000  0.00000000  1.0 -0.2982922426
Zn  Zn12  1  0.00000000  0.00000000  0.50000000  1.0 -0.2982922426
C  C1  1  0.95120000  0.65910000  0.93190000  1.0 0.1943007072
C  C2  1  0.95120000  0.84090000  0.43190000  1.0 0.1943007072
C  C3  1  0.45120000  0.65910000  0.56810000  1.0 0.1962426178
C  C4  1  0.45120000  0.84090000  0.06810000  1.0 0.1962426178
C  C5  1  0.65910000  0.93190000  0.95120000  1.0 0.1943007072
C  C6  1  0.65910000  0.56810000  0.45120000  1.0 0.1962426178
C  C7  1  0.15910000  0.93190000  0.54880000  1.0 0.1943007072
C  C8  1  0.15910000  0.56810000  0.04880000  1.0 0.1962426178
C  C9  1  0.93190000  0.95120000  0.65910000  1.0 0.1943007072
C  C10  1  0.93190000  0.54880000  0.15910000  1.0 0.1962426178
C  C11  1  0.43190000  0.95120000  0.84090000  1.0 0.1962426178
C  C12  1  0.43190000  0.54880000  0.34090000  1.0 0.1962426178
C  C13  1  0.06810000  0.45120000  0.84090000  1.0 0.1962426178
C  C14  1  0.06810000  0.04880000  0.34090000  1.0 0.1943007072
C  C15  1  0.56810000  0.45120000  0.65910000  1.0 0.1943007072
C  C16  1  0.56810000  0.04880000  0.15910000  1.0 0.1962426178
C  C17  1  0.34090000  0.43190000  0.54880000  1.0 0.1962426178
C  C18  1  0.34090000  0.06810000  0.04880000  1.0 0.1962426178
C  C19  1  0.84090000  0.43190000  0.95120000  1.0 0.1943007072
C  C20  1  0.84090000  0.06810000  0.45120000  1.0 0.1943007072
C  C21  1  0.04880000  0.15910000  0.56810000  1.0 0.1943007072
C  C22  1  0.04880000  0.34090000  0.06810000  1.0 0.1962426178
C  C23  1  0.54880000  0.15910000  0.93190000  1.0 0.1943007072
C  C24  1  0.54880000  0.34090000  0.43190000  1.0 0.1962426178
C  C25  1  0.97380000  0.97380000  0.97380000  0.5 -0.1642199538
N  C25  1  0.97380000  0.97380000  0.97380000  0.5 -0.1682992829
C  C26  1  0.97380000  0.52620000  0.47380000  0.5 -0.1682992829
N  C26  1  0.97380000  0.52620000  0.47380000  0.5 -0.1682992829
C  C27  1  0.47380000  0.97380000  0.52620000  0.5 -0.1682992829
N  C27  1  0.47380000  0.97380000  0.52620000  0.5 -0.1682992829
C  C28  1  0.47380000  0.52620000  0.02620000  0.5 -0.1682992829
N  C28  1  0.47380000  0.52620000  0.02620000  0.5 -0.1682992829
C  C29  1  0.02620000  0.47380000  0.52620000  0.5 -0.3582813473
N  C29  1  0.02620000  0.47380000  0.52620000  0.5 -0.3582813473
C  C30  1  0.02620000  0.02620000  0.02620000  0.5 -0.3582813473
N  C30  1  0.02620000  0.02620000  0.02620000  0.5 -0.3582813473
C  C31  1  0.52620000  0.47380000  0.97380000  0.5 -0.3582813473
N  C31  1  0.52620000  0.47380000  0.97380000  0.5 -0.3582813473
C  C32  1  0.52620000  0.02620000  0.47380000  0.5 -0.3582813473
N  C32  1  0.52620000  0.02620000  0.47380000  0.5 -0.3582813473
N  N9  1  0.92580000  0.74060000  0.91180000  1.0 -0.3582813473
N  N10  1  0.92580000  0.75940000  0.41180000  1.0 -0.3582813473
N  N11  1  0.42580000  0.74060000  0.58820000  1.0 -0.3582813473
N  N12  1  0.42580000  0.75940000  0.08820000  1.0 -0.3582813473
N  N13  1  0.74060000  0.91180000  0.92580000  1.0 -0.3582813473
N  N14  1  0.74060000  0.58820000  0.42580000  1.0 -0.3582813473
N  N15  1  0.24060000  0.91180000  0.57420000  1.0 -0.3582813473
N  N16  1  0.24060000  0.58820000  0.07420000  1.0 -0.3582813473
N  N17  1  0.91180000  0.92580000  0.74060000  1.0 -0.3582813473
N  N18  1  0.91180000  0.57420000  0.24060000  1.0 -0.3582813473
N  N19  1  0.41180000  0.92580000  0.75940000  1.0 -0.3582813473
N  N20  1  0.41180000  0.57420000  0.25940000  1.0 -0.3582813473
N  N21  1  0.08820000  0.42580000  0.75940000  1.0 -0.3582813473
N  N22  1  0.08820000  0.07420000  0.25940000  1.0 -0.3582813473
N  N23  1  0.58820000  0.42580000  0.74060000  1.0 -0.3582813473
N  N24  1  0.58820000  0.07420000  0.24060000  1.0 -0.3582813473
  N  N25  1  0.25940000  0.41180000  0.57420000  1.0
  N  N26  1  0.25940000  0.08820000  0.07420000  1.0
  N  N27  1  0.75940000  0.41180000  0.92580000  1.0
  N  N28  1  0.75940000  0.08820000  0.42580000  1.0
  N  N29  1  0.07420000  0.24060000  0.58820000  1.0
  N  N30  1  0.07420000  0.25940000  0.08820000  1.0
  N  N31  1  0.57420000  0.24060000  0.91180000  1.0
  N  N32  1  0.57420000  0.25940000  0.41180000  1.0
