# DDEC6 charges by PACMAN v1.1 (https://github.com/mtap-research/PACMAN-charge/)
data_d2ta06783h2_FSR_pacman
_symmetry_space_group_name_H-M   'P 1'
_cell_length_a   15.44640000
_cell_length_b   15.44640000
_cell_length_c   9.69320000
_cell_angle_alpha   90.00000000
_cell_angle_beta   90.00000000
_cell_angle_gamma   90.00000000
_symmetry_Int_Tables_number   1
_chemical_formula_structural   Zn4H32.32C52.16N4O16F24
_chemical_formula_sum   'Zn4 H32.32 C52.16 N4 O16 F24'
_cell_volume   2312.71292706
_cell_formula_units_Z   1
loop_
 _symmetry_equiv_pos_site_id
 _symmetry_equiv_pos_as_xyz
  1  'x, y, z'
loop_
 _atom_site_type_symbol
 _atom_site_label
 _atom_site_symmetry_multiplicity
 _atom_site_fract_x
 _atom_site_fract_y
 _atom_site_fract_z
 _atom_site_occupancy
 _atom_site_charge
Zn  Zn1  1  0.50000000  0.00000000  0.65399000  1.0 0.680937889
Zn  Zn2  1  0.50000000  0.00000000  0.34226000  1.0 0.7054510441
Zn  Zn3  1  0.00000000  0.50000000  0.34601000  1.0 0.680937889
Zn  Zn4  1  0.00000000  0.50000000  0.65774000  1.0 0.7054510441
H  H1  1  0.38185000  0.73797000  0.61356000  1.0 0.1364516792
H  H2  1  0.61815000  0.26203000  0.61356000  1.0 0.1364516792
H  H3  1  0.23797000  0.11815000  0.61356000  1.0 0.1364516792
H  H4  1  0.76203000  0.88185000  0.61356000  1.0 0.1364516792
H  H5  1  0.11815000  0.76203000  0.38644000  1.0 0.1364516792
H  H6  1  0.88185000  0.23797000  0.38644000  1.0 0.1364516792
H  H7  1  0.26203000  0.38185000  0.38644000  1.0 0.1364516792
H  H8  1  0.73797000  0.61815000  0.38644000  1.0 0.1364516792
H  H9  1  0.60954000  0.92577000  0.11273000  0.38 0.1011878767
H  H10  1  0.52216000  0.86992000  0.10697000  0.38 0.1011878767
H  H11  1  0.42701000  0.88770000  0.87934000  0.38 0.1011878767
H  H12  1  0.52909000  0.86960000  0.88552000  0.38 0.1011878767
H  H13  1  0.52088000  0.86582000  0.11559000  0.38 0.0926914093
H  H14  1  0.42001000  0.89067000  0.10959000  0.38 0.1011878767
H  H15  1  0.52936000  0.87187000  0.88175000  0.38 0.1011878767
H  H16  1  0.61284000  0.93327000  0.88759000  0.38 0.1011878767
H  H17  1  0.39046000  0.07423000  0.11273000  0.38 0.1011878767
H  H18  1  0.47784000  0.13008000  0.10697000  0.38 0.1011878767
H  H19  1  0.57299000  0.11230000  0.87934000  0.38 0.1011878767
H  H20  1  0.47091000  0.13040000  0.88552000  0.38 0.1011878767
H  H21  1  0.47912000  0.13418000  0.11559000  0.38 0.0926914093
H  H22  1  0.57999000  0.10933000  0.10959000  0.38 0.1011878767
H  H23  1  0.47064000  0.12813000  0.88175000  0.38 0.1011878767
H  H24  1  0.38716000  0.06673000  0.88759000  0.38 0.1011878767
H  H25  1  0.42577000  0.89046000  0.11273000  0.38 0.1011878767
H  H26  1  0.36992000  0.97784000  0.10697000  0.38 0.1011878767
H  H27  1  0.38770000  0.07299000  0.87934000  0.38 0.1011878767
H  H28  1  0.36960000  0.97091000  0.88552000  0.38 0.1011878767
H  H29  1  0.36582000  0.97912000  0.11559000  0.38 0.0926914093
H  H30  1  0.39067000  0.07999000  0.10959000  0.38 0.1011878767
H  H31  1  0.37187000  0.97064000  0.88175000  0.38 0.1011878767
H  H32  1  0.43327000  0.88716000  0.88759000  0.38 0.1011878767
H  H33  1  0.57423000  0.10954000  0.11273000  0.38 0.1011878767
H  H34  1  0.63008000  0.02216000  0.10697000  0.38 0.1011878767
H  H35  1  0.61230000  0.92701000  0.87934000  0.38 0.1011878767
H  H36  1  0.63040000  0.02909000  0.88552000  0.38 0.1011878767
H  H37  1  0.63418000  0.02088000  0.11559000  0.38 0.0926914093
H  H38  1  0.60933000  0.92001000  0.10959000  0.38 0.1011878767
H  H39  1  0.62813000  0.02936000  0.88175000  0.38 0.1011878767
H  H40  1  0.56673000  0.11284000  0.88759000  0.38 0.1011878767
H  H41  1  0.89046000  0.57423000  0.88727000  0.38 0.1011878767
H  H42  1  0.97784000  0.63008000  0.89303000  0.38 0.1011878767
H  H43  1  0.07299000  0.61230000  0.12066000  0.38 0.1011878767
H  H44  1  0.97091000  0.63040000  0.11448000  0.38 0.1011878767
H  H45  1  0.97912000  0.63418000  0.88441000  0.38 0.0926914093
H  H46  1  0.07999000  0.60933000  0.89041000  0.38 0.1011878767
H  H47  1  0.97064000  0.62813000  0.11825000  0.38 0.1011878767
H  H48  1  0.88716000  0.56673000  0.11241000  0.38 0.1011878767
H  H49  1  0.10954000  0.42577000  0.88727000  0.38 0.1011878767
H  H50  1  0.02216000  0.36992000  0.89303000  0.38 0.1011878767
H  H51  1  0.92701000  0.38770000  0.12066000  0.38 0.1011878767
H  H52  1  0.02909000  0.36960000  0.11448000  0.38 0.1011878767
H  H53  1  0.02088000  0.36582000  0.88441000  0.38 0.0926914093
H  H54  1  0.92001000  0.39067000  0.89041000  0.38 0.1011878767
H  H55  1  0.02936000  0.37187000  0.11825000  0.38 0.1011878767
H  H56  1  0.11284000  0.43327000  0.11241000  0.38 0.1011878767
H  H57  1  0.07423000  0.60954000  0.88727000  0.38 0.1011878767
H  H58  1  0.13008000  0.52216000  0.89303000  0.38 0.1011878767
H  H59  1  0.11230000  0.42701000  0.12066000  0.38 0.1011878767
H  H60  1  0.13040000  0.52909000  0.11448000  0.38 0.1011878767
H  H61  1  0.13418000  0.52088000  0.88441000  0.38 0.0926914093
H  H62  1  0.10933000  0.42001000  0.89041000  0.38 0.1011878767
H  H63  1  0.12813000  0.52936000  0.11825000  0.38 0.1011878767
H  H64  1  0.06673000  0.61284000  0.11241000  0.38 0.1011878767
H  H65  1  0.92577000  0.39046000  0.88727000  0.38 0.1011878767
H  H66  1  0.86992000  0.47784000  0.89303000  0.38 0.1011878767
H  H67  1  0.88770000  0.57299000  0.12066000  0.38 0.1011878767
H  H68  1  0.86960000  0.47091000  0.11448000  0.38 0.1011878767
H  H69  1  0.86582000  0.47912000  0.88441000  0.38 0.0926914093
H  H70  1  0.89067000  0.57999000  0.89041000  0.38 0.1011878767
H  H71  1  0.87187000  0.47064000  0.11825000  0.38 0.1011878767
H  H72  1  0.93327000  0.38716000  0.11241000  0.38 0.1011878767
C  C1  1  0.32790000  0.74320000  0.56730000  1.0 -0.1294209036
C  C2  1  0.23020000  0.82620000  0.43060000  1.0 -0.1103757817
C  C3  1  0.30810000  0.81920000  0.49890000  1.0 0.0322887775
C  C4  1  0.37970000  0.88800000  0.49880000  1.0 0.5143026438
C  C5  1  0.20310000  0.90800000  0.35950000  1.0 0.6548287597
C  C6  1  0.67210000  0.25680000  0.56730000  1.0 -0.1294209036
C  C7  1  0.76980000  0.17380000  0.43060000  1.0 -0.1103757817
C  C8  1  0.69190000  0.18080000  0.49890000  1.0 0.0322887775
C  C9  1  0.62030000  0.11200000  0.49880000  1.0 0.5143026438
C  C10  1  0.79690000  0.09200000  0.35950000  1.0 0.6551295844
C  C11  1  0.24320000  0.17210000  0.56730000  1.0 -0.1294209036
C  C12  1  0.32620000  0.26980000  0.43060000  1.0 -0.1103757817
C  C13  1  0.31920000  0.19190000  0.49890000  1.0 0.0322887775
C  C14  1  0.38800000  0.12030000  0.49880000  1.0 0.5143026438
C  C15  1  0.40800000  0.29690000  0.35950000  1.0 0.6548287597
C  C16  1  0.75680000  0.82790000  0.56730000  1.0 -0.1294209036
C  C17  1  0.67380000  0.73020000  0.43060000  1.0 -0.1103757817
C  C18  1  0.68080000  0.80810000  0.49890000  1.0 0.0322887775
C  C19  1  0.61200000  0.87970000  0.49880000  1.0 0.5143026438
C  C20  1  0.59200000  0.70310000  0.35950000  1.0 0.6548287597
C  C21  1  0.17210000  0.75680000  0.43270000  1.0 -0.1294209036
C  C22  1  0.26980000  0.67380000  0.56940000  1.0 -0.1103757817
C  C23  1  0.19190000  0.68080000  0.50110000  1.0 0.0322887775
C  C24  1  0.12030000  0.61200000  0.50120000  1.0 0.5143026438
C  C25  1  0.29690000  0.59200000  0.64050000  1.0 0.6548287597
C  C26  1  0.82790000  0.24320000  0.43270000  1.0 -0.1294209036
C  C27  1  0.73020000  0.32620000  0.56940000  1.0 -0.1103757817
C  C28  1  0.80810000  0.31920000  0.50110000  1.0 0.0322887775
C  C29  1  0.87970000  0.38800000  0.50120000  1.0 0.5143026438
C  C30  1  0.70310000  0.40800000  0.64050000  1.0 0.6548287597
C  C31  1  0.25680000  0.32790000  0.43270000  1.0 -0.1294209036
C  C32  1  0.17380000  0.23020000  0.56940000  1.0 -0.1103757817
C  C33  1  0.18080000  0.30810000  0.50110000  1.0 0.0322887775
C  C34  1  0.11200000  0.37970000  0.50120000  1.0 0.5143026438
C  C35  1  0.09200000  0.20310000  0.64050000  1.0 0.6548287597
C  C36  1  0.74320000  0.67210000  0.43270000  1.0 -0.1294209036
C  C37  1  0.82620000  0.76980000  0.56940000  1.0 -0.1103757817
C  C38  1  0.81920000  0.69190000  0.50110000  1.0 0.0322887775
C  C39  1  0.88800000  0.62030000  0.50120000  1.0 0.5143026438
C  C40  1  0.90800000  0.79690000  0.64050000  1.0 0.6548287597
C  C41  1  0.54970000  0.92450000  0.07610000  0.38 -0.0806041085
C  C42  1  0.48260000  0.90890000  0.91730000  0.38 -0.0806041085
C  C43  1  0.47860000  0.90800000  0.07850000  0.38 -0.0876036632
C  C44  1  0.55210000  0.92710000  0.91880000  0.38 -0.0806041085
C  C45  1  0.45030000  0.07550000  0.07610000  0.38 -0.0806041085
C  C46  1  0.51740000  0.09110000  0.91730000  0.38 -0.0806041085
C  C47  1  0.52140000  0.09200000  0.07850000  0.38 -0.0876036632
C  C48  1  0.44790000  0.07290000  0.91880000  0.38 -0.0806041085
C  C49  1  0.42450000  0.95030000  0.07610000  0.38 -0.0806041085
C  C50  1  0.40890000  0.01740000  0.91730000  0.38 -0.0806041085
C  C51  1  0.40800000  0.02140000  0.07850000  0.38 -0.0876036632
C  C52  1  0.42710000  0.94790000  0.91880000  0.38 -0.0806041085
C  C53  1  0.57550000  0.04970000  0.07610000  0.38 -0.0806041085
C  C54  1  0.59110000  0.98260000  0.91730000  0.38 -0.0806041085
C  C55  1  0.59200000  0.97860000  0.07850000  0.38 -0.0876036632
C  C56  1  0.57290000  0.05210000  0.91880000  0.38 -0.0806041085
C  C57  1  0.95030000  0.57550000  0.92390000  0.38 -0.0806041085
C  C58  1  0.01740000  0.59110000  0.08270000  0.38 -0.0806041085
C  C59  1  0.02140000  0.59200000  0.92150000  0.38 -0.0876036632
C  C60  1  0.94790000  0.57290000  0.08120000  0.38 -0.0806041085
C  C61  1  0.04970000  0.42450000  0.92390000  0.38 -0.0806041085
C  C62  1  0.98260000  0.40890000  0.08270000  0.38 -0.0806041085
C  C63  1  0.97860000  0.40800000  0.92150000  0.38 -0.0876036632
C  C64  1  0.05210000  0.42710000  0.08120000  0.38 -0.0806041085
C  C65  1  0.07550000  0.54970000  0.92390000  0.38 -0.0806041085
C  C66  1  0.09110000  0.48260000  0.08270000  0.38 -0.0806041085
C  C67  1  0.09200000  0.47860000  0.92150000  0.38 -0.0876036632
C  C68  1  0.07290000  0.55210000  0.08120000  0.38 -0.0806041085
C  C69  1  0.92450000  0.45030000  0.92390000  0.38 -0.0806041085
C  C70  1  0.90890000  0.51740000  0.08270000  0.38 -0.0806041085
C  C71  1  0.90800000  0.52140000  0.92150000  0.38 -0.0876036632
C  C72  1  0.92710000  0.44790000  0.08120000  0.38 -0.0806041085
N  N1  1  0.50000000  0.00000000  0.13150000  1.0 -0.1178556132
N  N2  1  0.50000000  0.00000000  0.86420000  1.0 -0.1178556132
N  N3  1  0.00000000  0.50000000  0.86850000  1.0 -0.1178556132
N  N4  1  0.00000000  0.50000000  0.13580000  1.0 -0.1178556132
O  O1  1  0.40137000  0.91724000  0.38320000  1.0 -0.5509607169
O  O2  1  0.41103000  0.90580000  0.61265000  1.0 -0.5392322141
O  O3  1  0.59863000  0.08276000  0.38320000  1.0 -0.5509607169
O  O4  1  0.58897000  0.09420000  0.61265000  1.0 -0.5392322141
O  O5  1  0.41724000  0.09863000  0.38320000  1.0 -0.5509607169
O  O6  1  0.40580000  0.08897000  0.61265000  1.0 -0.5392322141
O  O7  1  0.58276000  0.90137000  0.38320000  1.0 -0.5509607169
O  O8  1  0.59420000  0.91103000  0.61265000  1.0 -0.5392322141
O  O9  1  0.09863000  0.58276000  0.61680000  1.0 -0.5509607169
O  O10  1  0.08897000  0.59420000  0.38735000  1.0 -0.5392322141
O  O11  1  0.90137000  0.41724000  0.61680000  1.0 -0.5509607169
O  O12  1  0.91103000  0.40580000  0.38735000  1.0 -0.5392322141
O  O13  1  0.08276000  0.40137000  0.61680000  1.0 -0.5509607169
O  O14  1  0.09420000  0.41103000  0.38735000  1.0 -0.5392322141
O  O15  1  0.91724000  0.59863000  0.61680000  1.0 -0.5509607169
O  O16  1  0.90580000  0.58897000  0.38735000  1.0 -0.5392322141
F  F1  1  0.11619000  0.91383000  0.34700000  1.0 -0.2117765072
F  F2  1  0.22884000  0.97886000  0.42660000  1.0 -0.2347179773
F  F3  1  0.23489000  0.91502000  0.23160000  1.0 -0.3206853467
F  F4  1  0.88381000  0.08617000  0.34700000  1.0 -0.2117765072
F  F5  1  0.77116000  0.02114000  0.42660000  1.0 -0.2347179773
F  F6  1  0.76511000  0.08498000  0.23160000  1.0 -0.3206853467
F  F7  1  0.41383000  0.38381000  0.34700000  1.0 -0.2117765072
F  F8  1  0.47886000  0.27116000  0.42660000  1.0 -0.2347179773
F  F9  1  0.41502000  0.26511000  0.23160000  1.0 -0.3206853467
F  F10  1  0.58617000  0.61619000  0.34700000  1.0 -0.2117765072
F  F11  1  0.52114000  0.72884000  0.42660000  1.0 -0.2347179773
F  F12  1  0.58498000  0.73489000  0.23160000  1.0 -0.3206853467
F  F13  1  0.38381000  0.58617000  0.65300000  1.0 -0.2117765072
F  F14  1  0.27116000  0.52114000  0.57340000  1.0 -0.2347179773
F  F15  1  0.26511000  0.58498000  0.76840000  1.0 -0.3206853467
F  F16  1  0.61619000  0.41383000  0.65300000  1.0 -0.2117765072
F  F17  1  0.72884000  0.47886000  0.57340000  1.0 -0.2347179773
F  F18  1  0.73489000  0.41502000  0.76840000  1.0 -0.3206853467
F  F19  1  0.08617000  0.11619000  0.65300000  1.0 -0.2117765072
F  F20  1  0.02114000  0.22884000  0.57340000  1.0 -0.2347179773
F  F21  1  0.08498000  0.23489000  0.76840000  1.0 -0.3206853467
F  F22  1  0.91383000  0.88381000  0.65300000  1.0 -0.2117765072
F  F23  1  0.97886000  0.77116000  0.57340000  1.0 -0.2347179773
F  F24  1  0.91502000  0.76511000  0.76840000  1.0 -0.3206853467
