# DDEC6 charges by PACMAN v1.1 (https://github.com/mtap-research/PACMAN-charge/)
data_c5qi00128e2_1_ASR_pacman
_symmetry_space_group_name_H-M   'P 1'
_cell_length_a   12.34000000
_cell_length_b   12.34000000
_cell_length_c   22.85200000
_cell_angle_alpha   90.00000000
_cell_angle_beta   90.00000000
_cell_angle_gamma   90.00000000
_symmetry_Int_Tables_number   1
_chemical_formula_structural   FeH12(C11N3)2
_chemical_formula_sum   'Fe4 H48 C88 N24'
_cell_volume   3479.80201120
_cell_formula_units_Z   4
loop_
 _symmetry_equiv_pos_site_id
 _symmetry_equiv_pos_as_xyz
  1  'x, y, z'
loop_
 _atom_site_type_symbol
 _atom_site_label
 _atom_site_symmetry_multiplicity
 _atom_site_fract_x
 _atom_site_fract_y
 _atom_site_fract_z
 _atom_site_occupancy
 _atom_site_charge
Fe  Fe1  1  0.50000000  0.50000000  0.50000000  1.0 0.7167894182
Fe  Fe2  1  0.50000000  0.50000000  0.00000000  1.0 0.7167894182
Fe  Fe3  1  0.00000000  0.00000000  0.00000000  1.0 0.7167894182
Fe  Fe4  1  0.00000000  0.00000000  0.50000000  1.0 0.7167894182
H  H1  1  0.05000000  0.68190000  0.50000000  1.0 0.1196149199
H  H2  1  0.95000000  0.31810000  0.50000000  1.0 0.1196149199
H  H3  1  0.31810000  0.05000000  0.50000000  1.0 0.1196149199
H  H4  1  0.68190000  0.95000000  0.50000000  1.0 0.1196149199
H  H5  1  0.95000000  0.68190000  0.00000000  1.0 0.1196149199
H  H6  1  0.05000000  0.31810000  0.00000000  1.0 0.1196149199
H  H7  1  0.68190000  0.05000000  0.00000000  1.0 0.1196149199
H  H8  1  0.31810000  0.95000000  0.00000000  1.0 0.1196149199
H  H9  1  0.55000000  0.18190000  0.00000000  1.0 0.1196149199
H  H10  1  0.45000000  0.81810000  0.00000000  1.0 0.1196149199
H  H11  1  0.81810000  0.55000000  0.00000000  1.0 0.1196149199
H  H12  1  0.18190000  0.45000000  0.00000000  1.0 0.1196149199
H  H13  1  0.45000000  0.18190000  0.50000000  1.0 0.1196149199
H  H14  1  0.55000000  0.81810000  0.50000000  1.0 0.1196149199
H  H15  1  0.18190000  0.55000000  0.50000000  1.0 0.1196149199
H  H16  1  0.81810000  0.45000000  0.50000000  1.0 0.1196149199
H  H17  1  0.46100000  0.34690000  0.39530000  0.5 0.1035749402
H  H18  1  0.53900000  0.65310000  0.39530000  0.5 0.1035749402
H  H19  1  0.65310000  0.46100000  0.39530000  0.5 0.1035749402
H  H20  1  0.34690000  0.53900000  0.39530000  0.5 0.1035749402
H  H21  1  0.53900000  0.34690000  0.10470000  0.5 0.1035749402
H  H22  1  0.46100000  0.65310000  0.10470000  0.5 0.1035749402
H  H23  1  0.34690000  0.46100000  0.10470000  0.5 0.1035749402
H  H24  1  0.65310000  0.53900000  0.10470000  0.5 0.1035749402
H  H25  1  0.96100000  0.84690000  0.89530000  0.5 0.1035749402
H  H26  1  0.03900000  0.15310000  0.89530000  0.5 0.1035749402
H  H27  1  0.15310000  0.96100000  0.89530000  0.5 0.1035749402
H  H28  1  0.84690000  0.03900000  0.89530000  0.5 0.1035749402
H  H29  1  0.03900000  0.84690000  0.60470000  0.5 0.1035749402
H  H30  1  0.96100000  0.15310000  0.60470000  0.5 0.1035749402
H  H31  1  0.84690000  0.96100000  0.60470000  0.5 0.1035749402
H  H32  1  0.15310000  0.03900000  0.60470000  0.5 0.1035749402
H  H33  1  0.53900000  0.65310000  0.60470000  0.5 0.1035749402
H  H34  1  0.46100000  0.34690000  0.60470000  0.5 0.1035749402
H  H35  1  0.34690000  0.53900000  0.60470000  0.5 0.1035749402
H  H36  1  0.65310000  0.46100000  0.60470000  0.5 0.1035749402
H  H37  1  0.46100000  0.65310000  0.89530000  0.5 0.1035749402
H  H38  1  0.53900000  0.34690000  0.89530000  0.5 0.1035749402
H  H39  1  0.65310000  0.53900000  0.89530000  0.5 0.1035749402
H  H40  1  0.34690000  0.46100000  0.89530000  0.5 0.1035749402
H  H41  1  0.03900000  0.15310000  0.10470000  0.5 0.1035749402
H  H42  1  0.96100000  0.84690000  0.10470000  0.5 0.1035749402
H  H43  1  0.84690000  0.03900000  0.10470000  0.5 0.1035749402
H  H44  1  0.15310000  0.96100000  0.10470000  0.5 0.1035749402
H  H45  1  0.96100000  0.15310000  0.39530000  0.5 0.1035749402
H  H46  1  0.03900000  0.84690000  0.39530000  0.5 0.1035749402
H  H47  1  0.15310000  0.03900000  0.39530000  0.5 0.1035749402
H  H48  1  0.84690000  0.96100000  0.39530000  0.5 0.1035749402
H  H49  1  0.45490000  0.34220000  0.29480000  0.5 0.0944484787
H  H50  1  0.54510000  0.65780000  0.29480000  0.5 0.0944484787
H  H51  1  0.65780000  0.45490000  0.29480000  0.5 0.0944484787
H  H52  1  0.34220000  0.54510000  0.29480000  0.5 0.0944484787
H  H53  1  0.54510000  0.34220000  0.20520000  0.5 0.0944484787
H  H54  1  0.45490000  0.65780000  0.20520000  0.5 0.0944484787
H  H55  1  0.34220000  0.45490000  0.20520000  0.5 0.0944484787
H  H56  1  0.65780000  0.54510000  0.20520000  0.5 0.0944484787
H  H57  1  0.95490000  0.84220000  0.79480000  0.5 0.0944484787
H  H58  1  0.04510000  0.15780000  0.79480000  0.5 0.0944484787
H  H59  1  0.15780000  0.95490000  0.79480000  0.5 0.0944484787
H  H60  1  0.84220000  0.04510000  0.79480000  0.5 0.0944484787
H  H61  1  0.04510000  0.84220000  0.70520000  0.5 0.0944484787
H  H62  1  0.95490000  0.15780000  0.70520000  0.5 0.0944484787
H  H63  1  0.84220000  0.95490000  0.70520000  0.5 0.0944484787
H  H64  1  0.15780000  0.04510000  0.70520000  0.5 0.0944484787
H  H65  1  0.54510000  0.65780000  0.70520000  0.5 0.0944484787
H  H66  1  0.45490000  0.34220000  0.70520000  0.5 0.0944484787
H  H67  1  0.34220000  0.54510000  0.70520000  0.5 0.0944484787
H  H68  1  0.65780000  0.45490000  0.70520000  0.5 0.0944484787
H  H69  1  0.45490000  0.65780000  0.79480000  0.5 0.0944484787
H  H70  1  0.54510000  0.34220000  0.79480000  0.5 0.0944484787
H  H71  1  0.65780000  0.54510000  0.79480000  0.5 0.0944484787
H  H72  1  0.34220000  0.45490000  0.79480000  0.5 0.0944484787
H  H73  1  0.04510000  0.15780000  0.20520000  0.5 0.0944484787
H  H74  1  0.95490000  0.84220000  0.20520000  0.5 0.0944484787
H  H75  1  0.84220000  0.04510000  0.20520000  0.5 0.0944484787
H  H76  1  0.15780000  0.95490000  0.20520000  0.5 0.0944484787
H  H77  1  0.95490000  0.15780000  0.29480000  0.5 0.0944484787
H  H78  1  0.04510000  0.84220000  0.29480000  0.5 0.0944484787
H  H79  1  0.15780000  0.04510000  0.29480000  0.5 0.0944484787
H  H80  1  0.84220000  0.95490000  0.29480000  0.5 0.0944484787
C  C1  1  0.72590000  0.63560000  0.50000000  1.0 0.2725308344
C  C2  1  0.27410000  0.36440000  0.50000000  1.0 0.2725308344
C  C3  1  0.36440000  0.72590000  0.50000000  1.0 0.2725308344
C  C4  1  0.63560000  0.27410000  0.50000000  1.0 0.2725308344
C  C5  1  0.27410000  0.63560000  0.00000000  1.0 0.2725308344
C  C6  1  0.72590000  0.36440000  0.00000000  1.0 0.2725308344
C  C7  1  0.63560000  0.72590000  0.00000000  1.0 0.2725308344
C  C8  1  0.36440000  0.27410000  0.00000000  1.0 0.2725308344
C  C9  1  0.22590000  0.13560000  0.00000000  1.0 0.2725308344
C  C10  1  0.77410000  0.86440000  0.00000000  1.0 0.2725308344
C  C11  1  0.86440000  0.22590000  0.00000000  1.0 0.2725308344
C  C12  1  0.13560000  0.77410000  0.00000000  1.0 0.2725308344
C  C13  1  0.77410000  0.13560000  0.50000000  1.0 0.2725308344
C  C14  1  0.22590000  0.86440000  0.50000000  1.0 0.2725308344
C  C15  1  0.13560000  0.22590000  0.50000000  1.0 0.2725308344
C  C16  1  0.86440000  0.77410000  0.50000000  1.0 0.2725308344
C  C17  1  0.83450000  0.66550000  0.50000000  1.0 -0.2003867838
C  C18  1  0.16550000  0.33450000  0.50000000  1.0 -0.2003867838
C  C19  1  0.33450000  0.83450000  0.50000000  1.0 -0.2003867838
C  C20  1  0.66550000  0.16550000  0.50000000  1.0 -0.2003867838
C  C21  1  0.16550000  0.66550000  0.00000000  1.0 -0.2003867838
C  C22  1  0.83450000  0.33450000  0.00000000  1.0 -0.2003867838
C  C23  1  0.66550000  0.83450000  0.00000000  1.0 -0.2003867838
C  C24  1  0.33450000  0.16550000  0.00000000  1.0 -0.2003867838
C  C25  1  0.91870000  0.58130000  0.50000000  1.0 0.1035749402
C  C26  1  0.08130000  0.41870000  0.50000000  1.0 0.1035749402
C  C27  1  0.41870000  0.91870000  0.50000000  1.0 0.1035749402
C  C28  1  0.58130000  0.08130000  0.50000000  1.0 0.1035749402
C  C29  1  0.08130000  0.58130000  0.00000000  1.0 0.1035749402
C  C30  1  0.91870000  0.41870000  0.00000000  1.0 0.1035749402
C  C31  1  0.58130000  0.91870000  0.00000000  1.0 0.1035749402
C  C32  1  0.41870000  0.08130000  0.00000000  1.0 0.1035749402
C  C33  1  0.02910000  0.60780000  0.50000000  1.0 -0.1661816795
C  C34  1  0.97090000  0.39220000  0.50000000  1.0 -0.1661816795
C  C35  1  0.39220000  0.02910000  0.50000000  1.0 -0.1661816795
C  C36  1  0.60780000  0.97090000  0.50000000  1.0 -0.1661816795
C  C37  1  0.97090000  0.60780000  0.00000000  1.0 -0.1661816795
C  C38  1  0.02910000  0.39220000  0.00000000  1.0 -0.1661816795
C  C39  1  0.60780000  0.02910000  0.00000000  1.0 -0.1661816795
C  C40  1  0.39220000  0.97090000  0.00000000  1.0 -0.1661816795
C  C41  1  0.52910000  0.10780000  0.00000000  1.0 -0.1661816795
C  C42  1  0.47090000  0.89220000  0.00000000  1.0 -0.1661816795
C  C43  1  0.89220000  0.52910000  0.00000000  1.0 -0.1661816795
C  C44  1  0.10780000  0.47090000  0.00000000  1.0 -0.1661816795
C  C45  1  0.47090000  0.10780000  0.50000000  1.0 -0.1661816795
C  C46  1  0.52910000  0.89220000  0.50000000  1.0 -0.1661816795
C  C47  1  0.10780000  0.52910000  0.50000000  1.0 -0.1661816795
C  C48  1  0.89220000  0.47090000  0.50000000  1.0 -0.1661816795
C  C113  1  0.50000000  0.50000000  0.28240000  1.0 0.045918518
C  C114  1  0.50000000  0.50000000  0.21760000  1.0 0.045918518
C  C115  1  0.00000000  0.00000000  0.78240000  1.0 0.045918518
C  C116  1  0.00000000  0.00000000  0.71760000  1.0 0.045918518
C  C117  1  0.50000000  0.50000000  0.71760000  1.0 0.045918518
C  C118  1  0.50000000  0.50000000  0.78240000  1.0 0.045918518
C  C119  1  0.00000000  0.00000000  0.21760000  1.0 0.045918518
C  C120  1  0.00000000  0.00000000  0.28240000  1.0 0.045918518
C  C49  1  0.47670000  0.41120000  0.37420000  0.5 -0.000253672
C  C50  1  0.52330000  0.58880000  0.37420000  0.5 -0.000253672
C  C51  1  0.58880000  0.47670000  0.37420000  0.5 -0.000253672
C  C52  1  0.41120000  0.52330000  0.37420000  0.5 -0.000253672
C  C53  1  0.52330000  0.41120000  0.12580000  0.5 -0.000253672
C  C54  1  0.47670000  0.58880000  0.12580000  0.5 -0.000253672
C  C55  1  0.41120000  0.47670000  0.12580000  0.5 -0.000253672
C  C56  1  0.58880000  0.52330000  0.12580000  0.5 -0.000253672
C  C57  1  0.97670000  0.91120000  0.87420000  0.5 -0.000253672
C  C58  1  0.02330000  0.08880000  0.87420000  0.5 -0.000253672
C  C59  1  0.08880000  0.97670000  0.87420000  0.5 -0.000253672
C  C60  1  0.91120000  0.02330000  0.87420000  0.5 -0.000253672
C  C61  1  0.02330000  0.91120000  0.62580000  0.5 -0.000253672
C  C62  1  0.97670000  0.08880000  0.62580000  0.5 -0.000253672
C  C63  1  0.91120000  0.97670000  0.62580000  0.5 -0.000253672
C  C64  1  0.08880000  0.02330000  0.62580000  0.5 -0.000253672
C  C65  1  0.52330000  0.58880000  0.62580000  0.5 -0.000253672
C  C66  1  0.47670000  0.41120000  0.62580000  0.5 -0.000253672
C  C67  1  0.41120000  0.52330000  0.62580000  0.5 -0.000253672
C  C68  1  0.58880000  0.47670000  0.62580000  0.5 -0.000253672
C  C69  1  0.47670000  0.58880000  0.87420000  0.5 -0.000253672
C  C70  1  0.52330000  0.41120000  0.87420000  0.5 -0.000253672
C  C71  1  0.58880000  0.52330000  0.87420000  0.5 -0.000253672
C  C72  1  0.41120000  0.47670000  0.87420000  0.5 -0.000253672
C  C73  1  0.02330000  0.08880000  0.12580000  0.5 -0.000253672
C  C74  1  0.97670000  0.91120000  0.12580000  0.5 -0.000253672
C  C75  1  0.91120000  0.02330000  0.12580000  0.5 -0.000253672
C  C76  1  0.08880000  0.97670000  0.12580000  0.5 -0.000253672
C  C77  1  0.97670000  0.08880000  0.37420000  0.5 -0.000253672
C  C78  1  0.02330000  0.91120000  0.37420000  0.5 -0.000253672
C  C79  1  0.08880000  0.02330000  0.37420000  0.5 -0.000253672
C  C80  1  0.91120000  0.97670000  0.37420000  0.5 -0.000253672
C  C81  1  0.47410000  0.40730000  0.31430000  0.5 -0.1116029404
C  C82  1  0.52590000  0.59270000  0.31430000  0.5 -0.1116029404
C  C83  1  0.59270000  0.47410000  0.31430000  0.5 -0.1116029404
C  C84  1  0.40730000  0.52590000  0.31430000  0.5 -0.1116029404
C  C85  1  0.52590000  0.40730000  0.18570000  0.5 -0.1116029404
C  C86  1  0.47410000  0.59270000  0.18570000  0.5 -0.1116029404
C  C87  1  0.40730000  0.47410000  0.18570000  0.5 -0.1116029404
C  C88  1  0.59270000  0.52590000  0.18570000  0.5 -0.1116029404
C  C89  1  0.97410000  0.90730000  0.81430000  0.5 -0.1116029404
C  C90  1  0.02590000  0.09270000  0.81430000  0.5 -0.1116029404
C  C91  1  0.09270000  0.97410000  0.81430000  0.5 -0.1116029404
C  C92  1  0.90730000  0.02590000  0.81430000  0.5 -0.1116029404
C  C93  1  0.02590000  0.90730000  0.68570000  0.5 -0.1116029404
C  C94  1  0.97410000  0.09270000  0.68570000  0.5 -0.1116029404
C  C95  1  0.90730000  0.97410000  0.68570000  0.5 -0.1116029404
C  C96  1  0.09270000  0.02590000  0.68570000  0.5 -0.1116029404
C  C97  1  0.52590000  0.59270000  0.68570000  0.5 -0.1116029404
C  C98  1  0.47410000  0.40730000  0.68570000  0.5 -0.1116029404
C  C99  1  0.40730000  0.52590000  0.68570000  0.5 -0.1116029404
C  C100  1  0.59270000  0.47410000  0.68570000  0.5 -0.1116029404
C  C101  1  0.47410000  0.59270000  0.81430000  0.5 -0.1116029404
C  C102  1  0.52590000  0.40730000  0.81430000  0.5 -0.1116029404
C  C103  1  0.59270000  0.52590000  0.81430000  0.5 -0.1116029404
C  C104  1  0.40730000  0.47410000  0.81430000  0.5 -0.1116029404
C  C105  1  0.02590000  0.09270000  0.18570000  0.5 -0.1116029404
C  C106  1  0.97410000  0.90730000  0.18570000  0.5 -0.1116029404
C  C107  1  0.90730000  0.02590000  0.18570000  0.5 -0.1116029404
C  C108  1  0.09270000  0.97410000  0.18570000  0.5 -0.1116029404
C  C109  1  0.97410000  0.09270000  0.31430000  0.5 -0.1116029404
C  C110  1  0.02590000  0.90730000  0.31430000  0.5 -0.1116029404
C  C111  1  0.09270000  0.02590000  0.31430000  0.5 -0.1116029404
C  C112  1  0.90730000  0.97410000  0.31430000  0.5 -0.1116029404
N  N1  1  0.63880000  0.60230000  0.50000000  1.0 -0.4602596375
N  N2  1  0.36120000  0.39770000  0.50000000  1.0 -0.4602596375
N  N3  1  0.39770000  0.63880000  0.50000000  1.0 -0.4602596375
N  N4  1  0.60230000  0.36120000  0.50000000  1.0 -0.4602596375
N  N5  1  0.36120000  0.60230000  0.00000000  1.0 -0.4602596375
N  N6  1  0.63880000  0.39770000  0.00000000  1.0 -0.4602596375
N  N7  1  0.60230000  0.63880000  0.00000000  1.0 -0.4602596375
N  N8  1  0.39770000  0.36120000  0.00000000  1.0 -0.4602596375
N  N9  1  0.13880000  0.10230000  0.00000000  1.0 -0.4602596375
N  N10  1  0.86120000  0.89770000  0.00000000  1.0 -0.4602596375
N  N11  1  0.89770000  0.13880000  0.00000000  1.0 -0.4602596375
N  N12  1  0.10230000  0.86120000  0.00000000  1.0 -0.4602596375
N  N13  1  0.86120000  0.10230000  0.50000000  1.0 -0.4602596375
N  N14  1  0.13880000  0.89770000  0.50000000  1.0 -0.4602596375
N  N15  1  0.10230000  0.13880000  0.50000000  1.0 -0.4602596375
N  N16  1  0.89770000  0.86120000  0.50000000  1.0 -0.4602596375
N  N17  1  0.50000000  0.50000000  0.40410000  1.0 -0.1835774842
N  N18  1  0.50000000  0.50000000  0.09590000  1.0 -0.1835774842
N  N19  1  0.00000000  0.00000000  0.90410000  1.0 -0.1835774842
N  N20  1  0.00000000  0.00000000  0.59590000  1.0 -0.1835774842
N  N21  1  0.50000000  0.50000000  0.59590000  1.0 -0.1835774842
N  N22  1  0.50000000  0.50000000  0.90410000  1.0 -0.1835774842
N  N23  1  0.00000000  0.00000000  0.09590000  1.0 -0.1835774842
N  N24  1  0.00000000  0.00000000  0.40410000  1.0 -0.1835774842
