# DDEC6 charges by PACMAN v1.1 (https://github.com/mtap-research/PACMAN-charge/)
data_S1600576721002843_1_FSR_pacman
_symmetry_space_group_name_H-M   'P 1'
_cell_length_a   16.85000000
_cell_length_b   16.85000000
_cell_length_c   8.42500000
_cell_angle_alpha   90.00000000
_cell_angle_beta   90.00000000
_cell_angle_gamma   90.00000000
_symmetry_Int_Tables_number   1
_chemical_formula_structural   ZnH10(C2N)4
_chemical_formula_sum   'Zn6 H60 C48 N24'
_cell_volume   2392.04706250
_cell_formula_units_Z   6
loop_
 _symmetry_equiv_pos_site_id
 _symmetry_equiv_pos_as_xyz
  1  'x, y, z'
loop_
 _atom_site_type_symbol
 _atom_site_label
 _atom_site_symmetry_multiplicity
 _atom_site_fract_x
 _atom_site_fract_y
 _atom_site_fract_z
 _atom_site_occupancy
 _atom_site_charge
Zn  Zn1  1  0.00000000  0.50000000  0.00000000  1.0 0.6594127602
Zn  Zn2  1  0.75004000  0.00000000  0.50000000  1.0 0.667117197
Zn  Zn3  1  0.50000000  0.00000000  0.00000000  1.0 0.6594127602
Zn  Zn4  1  0.00000000  0.75004000  0.50000000  1.0 0.667117197
Zn  Zn5  1  0.00000000  0.24996000  0.50000000  1.0 0.667117197
Zn  Zn6  1  0.24996000  0.00000000  0.50000000  1.0 0.667117197
H  H1  1  0.84945000  0.28174000  0.26705000  1.0 0.1214865771
H  H2  1  0.84943000  0.38352000  0.06339000  1.0 0.1214865771
H  H3  1  0.15057000  0.38352000  0.93661000  1.0 0.1214865771
H  H4  1  0.15055000  0.28174000  0.73295000  1.0 0.1214865771
H  H5  1  0.61648000  0.84943000  0.93661000  1.0 0.1214865771
H  H6  1  0.71826000  0.84945000  0.73295000  1.0 0.1214865771
H  H7  1  0.71826000  0.15055000  0.26705000  1.0 0.1214865771
H  H8  1  0.61648000  0.15057000  0.06339000  1.0 0.1214865771
H  H9  1  0.28174000  0.84945000  0.26705000  1.0 0.1214865771
H  H10  1  0.38352000  0.84943000  0.06339000  1.0 0.1214865771
H  H11  1  0.28174000  0.15055000  0.73295000  1.0 0.1214865771
H  H12  1  0.38352000  0.15057000  0.93661000  1.0 0.1214865771
H  H13  1  0.78171000  0.88356000  0.19855000  1.0 0.1296105794
H  H14  1  0.88356000  0.78171000  0.19855000  1.0 0.1296105794
H  H15  1  0.15057000  0.61648000  0.06339000  1.0 0.1214865771
H  H16  1  0.15055000  0.71826000  0.26705000  1.0 0.1214865771
H  H17  1  0.84943000  0.61648000  0.93661000  1.0 0.1214865771
H  H18  1  0.84945000  0.71826000  0.73295000  1.0 0.1214865771
H  H19  1  0.78171000  0.11644000  0.80145000  1.0 0.1296105794
H  H20  1  0.88356000  0.21829000  0.80145000  1.0 0.1296105794
H  H21  1  0.11644000  0.78171000  0.80145000  1.0 0.1296105794
H  H22  1  0.21829000  0.88356000  0.80145000  1.0 0.1296105794
H  H23  1  0.11644000  0.21829000  0.19855000  1.0 0.1296105794
H  H24  1  0.21829000  0.11644000  0.19855000  1.0 0.1296105794
H  H25  1  0.08390000  0.45511000  0.34194000  0.5 0.0690559766
H  H26  1  0.08391000  0.42092000  0.41036000  0.5 0.0690559766
H  H27  1  0.10471000  0.36722000  0.38618000  0.5 0.0614347972
H  H28  1  0.12181000  0.35721000  0.29778000  0.5 0.0614347972
H  H29  1  0.10470000  0.44300000  0.23453000  0.5 0.0614347972
H  H30  1  0.12180000  0.39880000  0.21455000  0.5 0.0614347972
H  H31  1  0.91609000  0.42092000  0.58964000  0.5 0.0690559766
H  H32  1  0.91610000  0.45511000  0.65806000  0.5 0.0690559766
H  H33  1  0.89529000  0.36722000  0.61382000  0.5 0.0614347972
H  H34  1  0.87819000  0.35721000  0.70222000  0.5 0.0614347972
H  H35  1  0.89530000  0.44300000  0.76547000  0.5 0.0614347972
H  H36  1  0.87820000  0.39880000  0.78545000  0.5 0.0614347972
H  H37  1  0.57908000  0.08391000  0.58964000  0.5 0.0690559766
H  H38  1  0.54489000  0.08390000  0.65806000  0.5 0.0690559766
H  H39  1  0.63278000  0.10471000  0.61382000  0.5 0.0614347972
H  H40  1  0.64279000  0.12181000  0.70222000  0.5 0.0614347972
H  H41  1  0.55700000  0.10470000  0.76547000  0.5 0.0614347972
H  H42  1  0.60120000  0.12180000  0.78545000  0.5 0.0614347972
H  H43  1  0.57908000  0.91609000  0.41036000  0.5 0.0690559766
H  H44  1  0.54489000  0.91610000  0.34194000  0.5 0.0690559766
H  H45  1  0.63278000  0.89529000  0.38618000  0.5 0.0614347972
H  H46  1  0.64279000  0.87819000  0.29778000  0.5 0.0614347972
H  H47  1  0.55700000  0.89530000  0.23453000  0.5 0.0614347972
H  H48  1  0.60120000  0.87820000  0.21455000  0.5 0.0614347972
H  H49  1  0.42092000  0.08391000  0.41036000  0.5 0.0690559766
H  H50  1  0.45511000  0.08390000  0.34194000  0.5 0.0690559766
H  H51  1  0.36722000  0.10471000  0.38618000  0.5 0.0614347972
H  H52  1  0.35721000  0.12181000  0.29778000  0.5 0.0614347972
H  H53  1  0.44300000  0.10470000  0.23453000  0.5 0.0614347972
H  H54  1  0.39880000  0.12180000  0.21455000  0.5 0.0614347972
H  H55  1  0.42092000  0.91609000  0.58964000  0.5 0.0690559766
H  H56  1  0.45511000  0.91610000  0.65806000  0.5 0.0690559766
H  H57  1  0.36722000  0.89529000  0.61382000  0.5 0.0614347972
H  H58  1  0.35721000  0.87819000  0.70222000  0.5 0.0614347972
H  H59  1  0.44300000  0.89530000  0.76547000  0.5 0.0614347972
H  H60  1  0.39880000  0.87820000  0.78545000  0.5 0.0614347972
H  H61  1  0.95514000  0.92103000  0.66752000  0.5 0.0690559766
H  H62  1  0.92103000  0.95514000  0.66752000  0.5 0.0690559766
H  H63  1  0.86724000  0.94313000  0.70913000  0.5 0.0690559766
H  H64  1  0.85724000  0.89893000  0.74335000  0.5 0.0690559766
H  H65  1  0.94313000  0.86724000  0.70913000  0.5 0.0690559766
H  H66  1  0.89893000  0.85724000  0.74335000  0.5 0.0690559766
H  H67  1  0.91609000  0.57908000  0.41036000  0.5 0.0690559766
H  H68  1  0.91610000  0.54489000  0.34194000  0.5 0.0690559766
H  H69  1  0.89530000  0.55700000  0.23453000  0.5 0.0614347972
H  H70  1  0.87820000  0.60120000  0.21455000  0.5 0.0614347972
H  H71  1  0.89529000  0.63278000  0.38618000  0.5 0.0614347972
H  H72  1  0.87819000  0.64279000  0.29778000  0.5 0.0614347972
H  H73  1  0.08390000  0.54489000  0.65806000  0.5 0.0690559766
H  H74  1  0.08391000  0.57908000  0.58964000  0.5 0.0690559766
H  H75  1  0.10470000  0.55700000  0.76547000  0.5 0.0614347972
H  H76  1  0.12180000  0.60120000  0.78545000  0.5 0.0614347972
H  H77  1  0.10471000  0.63278000  0.61382000  0.5 0.0614347972
H  H78  1  0.12181000  0.64279000  0.70222000  0.5 0.0614347972
H  H79  1  0.92103000  0.04486000  0.33248000  0.5 0.0690559766
H  H80  1  0.95514000  0.07897000  0.33248000  0.5 0.0690559766
H  H81  1  0.86724000  0.05687000  0.29087000  0.5 0.0690559766
H  H82  1  0.85724000  0.10107000  0.25665000  0.5 0.0690559766
H  H83  1  0.94313000  0.13276000  0.29087000  0.5 0.0690559766
H  H84  1  0.89893000  0.14276000  0.25665000  0.5 0.0690559766
H  H85  1  0.04486000  0.92103000  0.33248000  0.5 0.0690559766
H  H86  1  0.07897000  0.95514000  0.33248000  0.5 0.0690559766
H  H87  1  0.05687000  0.86724000  0.29087000  0.5 0.0690559766
H  H88  1  0.10107000  0.85724000  0.25665000  0.5 0.0690559766
H  H89  1  0.13276000  0.94313000  0.29087000  0.5 0.0690559766
H  H90  1  0.14276000  0.89893000  0.25665000  0.5 0.0690559766
H  H91  1  0.07897000  0.04486000  0.66752000  0.5 0.0690559766
H  H92  1  0.04486000  0.07897000  0.66752000  0.5 0.0690559766
H  H93  1  0.05687000  0.13276000  0.70913000  0.5 0.0690559766
H  H94  1  0.10107000  0.14276000  0.74335000  0.5 0.0690559766
H  H95  1  0.13276000  0.05687000  0.70913000  0.5 0.0690559766
H  H96  1  0.14276000  0.10107000  0.74335000  0.5 0.0690559766
C  C1  1  0.08610000  0.40151000  0.30316000  1.0 -0.4020027333
C  C2  1  0.89125000  0.31604000  0.24482000  1.0 -0.0733014554
C  C3  1  0.89124000  0.37243000  0.13199000  1.0 -0.0733014554
C  C4  1  0.00530000  0.37599000  0.25219000  1.0 0.2734650757
C  C5  1  0.91390000  0.40151000  0.69684000  1.0 -0.4020027333
C  C6  1  0.10876000  0.37243000  0.86801000  1.0 -0.0733014554
C  C7  1  0.10875000  0.31604000  0.75518000  1.0 -0.0733014554
C  C8  1  0.99470000  0.37599000  0.74781000  1.0 0.2734650757
C  C9  1  0.59849000  0.08610000  0.69684000  1.0 -0.4020027333
C  C10  1  0.62757000  0.89124000  0.86801000  1.0 -0.0733014554
C  C11  1  0.68396000  0.89125000  0.75518000  1.0 -0.0733014554
C  C12  1  0.62401000  0.00530000  0.74781000  1.0 0.2734650757
C  C13  1  0.59849000  0.91390000  0.30316000  1.0 -0.4020027333
C  C14  1  0.68396000  0.10875000  0.24482000  1.0 -0.0733014554
C  C15  1  0.62757000  0.10876000  0.13199000  1.0 -0.0733014554
C  C16  1  0.62401000  0.99470000  0.25219000  1.0 0.2734650757
C  C17  1  0.40151000  0.08610000  0.30316000  1.0 -0.4020027333
C  C18  1  0.31604000  0.89125000  0.24482000  1.0 -0.076025691
C  C19  1  0.37243000  0.89124000  0.13199000  1.0 -0.0733014554
C  C20  1  0.37599000  0.00530000  0.25219000  1.0 0.2734650757
C  C21  1  0.40151000  0.91390000  0.69684000  1.0 -0.4020027333
C  C22  1  0.31604000  0.10875000  0.75518000  1.0 -0.0733014554
C  C23  1  0.37243000  0.10876000  0.86801000  1.0 -0.0733014554
C  C24  1  0.37599000  0.99470000  0.74781000  1.0 0.2734650757
C  C25  1  0.90158000  0.90158000  0.67194000  1.0 -0.409405049
C  C26  1  0.81601000  0.87247000  0.28215000  1.0 -0.0733014554
C  C27  1  0.87247000  0.81601000  0.28215000  1.0 -0.076025691
C  C28  1  0.87606000  0.87606000  0.51035000  1.0 0.2647578902
C  C29  1  0.91390000  0.59849000  0.30316000  1.0 -0.4020027333
C  C30  1  0.10876000  0.62757000  0.13199000  1.0 -0.0733014554
C  C31  1  0.10875000  0.68396000  0.24482000  1.0 -0.076025691
C  C32  1  0.99470000  0.62401000  0.25219000  1.0 0.2734650757
C  C33  1  0.08610000  0.59849000  0.69684000  1.0 -0.4020027333
C  C34  1  0.89124000  0.62757000  0.86801000  1.0 -0.0733014554
C  C35  1  0.89125000  0.68396000  0.75518000  1.0 -0.0733014554
C  C36  1  0.00530000  0.62401000  0.74781000  1.0 0.2734650757
C  C37  1  0.90158000  0.09842000  0.32806000  1.0 -0.409405049
C  C38  1  0.81601000  0.12753000  0.71785000  1.0 -0.0733014554
C  C39  1  0.87247000  0.18399000  0.71785000  1.0 -0.0733014554
C  C40  1  0.87606000  0.12394000  0.48965000  1.0 0.2734650757
C  C41  1  0.09842000  0.90158000  0.32806000  1.0 -0.409405049
C  C42  1  0.12753000  0.81601000  0.71785000  1.0 -0.076025691
C  C43  1  0.18399000  0.87247000  0.71785000  1.0 -0.076025691
C  C44  1  0.12394000  0.87606000  0.48965000  1.0 0.2647578902
C  C45  1  0.09842000  0.09842000  0.67194000  1.0 -0.409405049
C  C46  1  0.12753000  0.18399000  0.28215000  1.0 -0.076025691
C  C47  1  0.18399000  0.12753000  0.28215000  1.0 -0.076025691
C  C48  1  0.12394000  0.12394000  0.51035000  1.0 0.2647578902
N  N1  1  0.96436000  0.31735000  0.32341000  1.0 -0.3477799186
N  N2  1  0.96434000  0.41173000  0.13455000  1.0 -0.3443938457
N  N3  1  0.03564000  0.31735000  0.67659000  1.0 -0.3477799186
N  N4  1  0.03566000  0.41173000  0.86545000  1.0 -0.3443938457
N  N5  1  0.58827000  0.96434000  0.86545000  1.0 -0.3443938457
N  N6  1  0.68265000  0.96436000  0.67659000  1.0 -0.3477799186
N  N7  1  0.58827000  0.03566000  0.13455000  1.0 -0.3443938457
N  N8  1  0.68265000  0.03564000  0.32341000  1.0 -0.3477799186
N  N9  1  0.31735000  0.96436000  0.32341000  1.0 -0.3477799186
N  N10  1  0.41173000  0.96434000  0.13455000  1.0 -0.3443938457
N  N11  1  0.31735000  0.03564000  0.67659000  1.0 -0.3477799186
N  N12  1  0.41173000  0.03566000  0.86545000  1.0 -0.3443938457
N  N13  1  0.81732000  0.91179000  0.42834000  1.0 -0.3477799186
N  N14  1  0.91179000  0.81732000  0.42834000  1.0 -0.3477799186
N  N15  1  0.03566000  0.58827000  0.13455000  1.0 -0.3443938457
N  N16  1  0.03564000  0.68265000  0.32341000  1.0 -0.3477799186
N  N17  1  0.96434000  0.58827000  0.86545000  1.0 -0.3443938457
N  N18  1  0.96436000  0.68265000  0.67659000  1.0 -0.3477799186
N  N19  1  0.81732000  0.08821000  0.57166000  1.0 -0.3477799186
N  N20  1  0.91179000  0.18268000  0.57166000  1.0 -0.3477799186
N  N21  1  0.18268000  0.91179000  0.57166000  1.0 -0.3477799186
N  N22  1  0.08821000  0.81732000  0.57166000  1.0 -0.3477799186
N  N23  1  0.18268000  0.08821000  0.42834000  1.0 -0.3477799186
N  N24  1  0.08821000  0.18268000  0.42834000  1.0 -0.3477799186
