# DDEC6 charges by PACMAN v1.1 (https://github.com/mtap-research/PACMAN-charge/)
data_2018[Zn][sql]2[ASR]6
_chemical_formula_sum              "Zn4 H64 C96 N8 O16"
_cell_length_a       11.9824
_cell_length_b       15.6597
_cell_length_c       16.9763
_cell_angle_alpha    90
_cell_angle_beta     90
_cell_angle_gamma    90

_symmetry_space_group_name_H-M    "P 1"
_symmetry_Int_Tables_number       1

loop_
  _symmetry_equiv_pos_as_xyz
  'x, y, z'

loop_
  _atom_site_type_symbol
  _atom_site_label
  _atom_site_symmetry_multiplicity
  _atom_site_fract_x
  _atom_site_fract_y
  _atom_site_fract_z
  _atom_site_occupancy
  _atom_site_charge
Zn  Zn1       1.0  0.99577  0.32428  0.99469  1.0000 0.73429482
Zn  Zn2       1.0  0.00423  0.82428  0.50531  1.0000 0.73429482
Zn  Zn3       1.0  0.50423  0.67572  0.49469  1.0000 0.73429482
Zn  Zn4       1.0  0.49577  0.17572  0.00531  1.0000 0.73429482
H   H1        1.0  0.93870  0.53810  0.19890  1.0000 0.1116827366
H   H2        1.0  0.63640  0.57030  0.29650  1.0000 0.1207628402
H   H3        1.0  0.56260  0.47610  0.20540  1.0000 0.1116827366
H   H4        1.0  0.67600  0.40810  0.11550  1.0000 0.1116827366
H   H5        1.0  0.95410  0.68220  0.24040  1.0000 0.1383298443
H   H6        1.0  0.03310  0.77020  0.33200  1.0000 0.1116827366
H   H7        1.0  0.75660  0.58940  0.41050  1.0000 0.1520894722
H   H8        1.0  0.84080  0.68080  0.49690  1.0000 0.1116827366
H   H9        1.0  0.07300  0.53580  0.80530  1.0000 0.1116827366
H   H10       1.0  0.38260  0.59630  0.73370  1.0000 0.1207628402
H   H11       1.0  0.45530  0.50580  0.82830  1.0000 0.1116827366
H   H12       1.0  0.33870  0.42420  0.90590  1.0000 0.1116827366
H   H13       1.0  0.97250  0.77220  0.67720  1.0000 0.1116827366
H   H14       1.0  0.04940  0.68470  0.77030  1.0000 0.1383298443
H   H15       1.0  0.27260  0.60820  0.60890  1.0000 0.1520894722
H   H16       1.0  0.18350  0.69260  0.51880  1.0000 0.1116827366
H   H17       1.0  0.06130  0.03810  0.30110  1.0000 0.1116827366
H   H18       1.0  0.36360  0.07030  0.20350  1.0000 0.1207628402
H   H19       1.0  0.43740  0.97610  0.29460  1.0000 0.1116827366
H   H20       1.0  0.32400  0.90810  0.38450  1.0000 0.1116827366
H   H21       1.0  0.04590  0.18220  0.25960  1.0000 0.1383298443
H   H22       1.0  0.96690  0.27020  0.16800  1.0000 0.1116827366
H   H23       1.0  0.24340  0.08940  0.08950  1.0000 0.1520894722
H   H24       1.0  0.15920  0.18080  0.00310  1.0000 0.1116827366
H   H25       1.0  0.92700  0.03580  0.69470  1.0000 0.1116827366
H   H26       1.0  0.61740  0.09630  0.76630  1.0000 0.1207628402
H   H27       1.0  0.54470  0.00580  0.67170  1.0000 0.1116827366
H   H28       1.0  0.66130  0.92420  0.59410  1.0000 0.1116827366
H   H29       1.0  0.02750  0.27220  0.82280  1.0000 0.1116827366
H   H30       1.0  0.95060  0.18470  0.72970  1.0000 0.1383298443
H   H31       1.0  0.72740  0.10820  0.89110  1.0000 0.1520894722
H   H32       1.0  0.81650  0.19260  0.98120  1.0000 0.1116827366
H   H33       1.0  0.56130  0.46190  0.69890  1.0000 0.1116827366
H   H34       1.0  0.86360  0.42970  0.79650  1.0000 0.1207628402
H   H35       1.0  0.93740  0.52390  0.70540  1.0000 0.1116827366
H   H36       1.0  0.82400  0.59190  0.61550  1.0000 0.1116827366
H   H37       1.0  0.54590  0.31780  0.74040  1.0000 0.1383298443
H   H38       1.0  0.46690  0.22980  0.83200  1.0000 0.1116827366
H   H39       1.0  0.74340  0.41060  0.91050  1.0000 0.1520894722
H   H40       1.0  0.65920  0.31920  0.99690  1.0000 0.1116827366
H   H41       1.0  0.42700  0.46420  0.30530  1.0000 0.1116827366
H   H42       1.0  0.11740  0.40370  0.23370  1.0000 0.1207628402
H   H43       1.0  0.04470  0.49420  0.32830  1.0000 0.1116827366
H   H44       1.0  0.16130  0.57580  0.40590  1.0000 0.1116827366
H   H45       1.0  0.52750  0.22780  0.17720  1.0000 0.1116827366
H   H46       1.0  0.45060  0.31530  0.27030  1.0000 0.1383298443
H   H47       1.0  0.22740  0.39180  0.10890  1.0000 0.1520894722
H   H48       1.0  0.31650  0.30740  0.01880  1.0000 0.1116827366
H   H49       1.0  0.43870  0.96190  0.80110  1.0000 0.1116827366
H   H50       1.0  0.13640  0.92970  0.70350  1.0000 0.1207628402
H   H51       1.0  0.06260  0.02390  0.79460  1.0000 0.1116827366
H   H52       1.0  0.17600  0.09190  0.88450  1.0000 0.1116827366
H   H53       1.0  0.45410  0.81780  0.75960  1.0000 0.1383298443
H   H54       1.0  0.53310  0.72980  0.66800  1.0000 0.1116827366
H   H55       1.0  0.25660  0.91060  0.58950  1.0000 0.1520894722
H   H56       1.0  0.34080  0.81920  0.50310  1.0000 0.1116827366
H   H57       1.0  0.57300  0.96420  0.19470  1.0000 0.1116827366
H   H58       1.0  0.88260  0.90370  0.26630  1.0000 0.1207628402
H   H59       1.0  0.95530  0.99420  0.17170  1.0000 0.1116827366
H   H60       1.0  0.83870  0.07580  0.09410  1.0000 0.1116827366
H   H61       1.0  0.47250  0.72780  0.32280  1.0000 0.1116827366
H   H62       1.0  0.54940  0.81530  0.22970  1.0000 0.1383298443
H   H63       1.0  0.77260  0.89180  0.39110  1.0000 0.1520894722
H   H64       1.0  0.68350  0.80740  0.48120  1.0000 0.1116827366
C   C1        1.0  0.89600  0.41831  0.09400  1.0000 0.541881013
C   C2        1.0  0.82000  0.46402  0.14965  1.0000 -0.0134082259
C   C3        1.0  0.86330  0.52407  0.20160  1.0000 -0.1527504443
C   C4        1.0  0.79650  0.56349  0.25737  1.0000 0.0579098792
C   C5        1.0  0.68250  0.54460  0.25930  1.0000 -0.1316295477
C   C6        1.0  0.63880  0.48740  0.20520  1.0000 -0.0945982604
C   C7        1.0  0.70650  0.44680  0.15100  1.0000 -0.1136550686
C   C8        1.0  0.93000  0.68021  0.29241  1.0000 -0.2024690515
C   C9        1.0  0.97680  0.73317  0.34785  1.0000 0.0787503542
C   C10       1.0  0.84670  0.62390  0.31462  1.0000 0.1207628402
C   C11       1.0  0.81310  0.62545  0.39313  1.0000 -0.1869272112
C   C12       1.0  0.86420  0.68069  0.44471  1.0000 0.0855814001
C   C13       1.0  0.11450  0.41640  0.90907  1.0000 0.541881013
C   C14       1.0  0.19340  0.47013  0.86204  1.0000 -0.0134082259
C   C15       1.0  0.14990  0.52849  0.80853  1.0000 -0.1527504443
C   C16       1.0  0.21940  0.57615  0.75967  1.0000 0.0579098792
C   C17       1.0  0.33490  0.56590  0.76657  1.0000 -0.1316295477
C   C18       1.0  0.37840  0.51040  0.82240  1.0000 -0.0961933776
C   C19       1.0  0.30870  0.46210  0.86938  1.0000 -0.1136550686
C   C20       1.0  0.03230  0.73761  0.66307  1.0000 0.0787503542
C   C21       1.0  0.07890  0.68568  0.71961  1.0000 -0.2024690515
C   C22       1.0  0.17010  0.63483  0.70097  1.0000 0.1207628402
C   C23       1.0  0.21030  0.63972  0.62389  1.0000 -0.1869272112
C   C24       1.0  0.15710  0.69157  0.57027  1.0000 0.0787503542
C   C25       1.0  0.10400  0.91831  0.40600  1.0000 0.541881013
C   C26       1.0  0.18000  0.96402  0.35035  1.0000 -0.0134082259
C   C27       1.0  0.13670  0.02407  0.29840  1.0000 -0.1527504443
C   C28       1.0  0.20350  0.06349  0.24263  1.0000 0.0579098792
C   C29       1.0  0.31750  0.04460  0.24070  1.0000 -0.1316295477
C   C30       1.0  0.36120  0.98740  0.29480  1.0000 -0.0945982604
C   C31       1.0  0.29350  0.94680  0.34900  1.0000 -0.1136550686
C   C32       1.0  0.07000  0.18021  0.20759  1.0000 -0.2024690515
C   C33       1.0  0.02320  0.23317  0.15215  1.0000 0.0787503542
C   C34       1.0  0.15330  0.12390  0.18538  1.0000 0.1207628402
C   C35       1.0  0.18690  0.12545  0.10687  1.0000 -0.1869272112
C   C36       1.0  0.13580  0.18069  0.05529  1.0000 0.0855814001
C   C37       1.0  0.88550  0.91640  0.59093  1.0000 0.541881013
C   C38       1.0  0.80660  0.97013  0.63796  1.0000 -0.0134082259
C   C39       1.0  0.85010  0.02849  0.69147  1.0000 -0.1527504443
C   C40       1.0  0.78060  0.07615  0.74033  1.0000 0.0579098792
C   C41       1.0  0.66510  0.06590  0.73343  1.0000 -0.1316295477
C   C42       1.0  0.62160  0.01040  0.67760  1.0000 -0.0961933776
C   C43       1.0  0.69130  0.96210  0.63062  1.0000 -0.1136550686
C   C44       1.0  0.96770  0.23761  0.83693  1.0000 0.0787503542
C   C45       1.0  0.92110  0.18568  0.78039  1.0000 -0.2024690515
C   C46       1.0  0.82990  0.13483  0.79903  1.0000 0.1207628402
C   C47       1.0  0.78970  0.13972  0.87611  1.0000 -0.1869272112
C   C48       1.0  0.84290  0.19157  0.92973  1.0000 0.0787503542
C   C49       1.0  0.60400  0.58169  0.59400  1.0000 0.541881013
C   C50       1.0  0.68000  0.53598  0.64965  1.0000 -0.0134082259
C   C51       1.0  0.63670  0.47593  0.70160  1.0000 -0.1527504443
C   C52       1.0  0.70350  0.43651  0.75737  1.0000 0.0579098792
C   C53       1.0  0.81750  0.45540  0.75930  1.0000 -0.1316295477
C   C54       1.0  0.86120  0.51260  0.70520  1.0000 -0.0945982604
C   C55       1.0  0.79350  0.55320  0.65100  1.0000 -0.1136550686
C   C56       1.0  0.57000  0.31979  0.79241  1.0000 -0.2024690515
C   C57       1.0  0.52320  0.26683  0.84785  1.0000 0.0787503542
C   C58       1.0  0.65330  0.37610  0.81462  1.0000 0.1207628402
C   C59       1.0  0.68690  0.37455  0.89313  1.0000 -0.1869272112
C   C60       1.0  0.63580  0.31931  0.94471  1.0000 0.0855814001
C   C61       1.0  0.38550  0.58360  0.40907  1.0000 0.541881013
C   C62       1.0  0.30660  0.52987  0.36204  1.0000 -0.0134082259
C   C63       1.0  0.35010  0.47151  0.30853  1.0000 -0.1527504443
C   C64       1.0  0.28060  0.42385  0.25967  1.0000 0.0579098792
C   C65       1.0  0.16510  0.43410  0.26657  1.0000 -0.1316295477
C   C66       1.0  0.12160  0.48960  0.32240  1.0000 -0.0961933776
C   C67       1.0  0.19130  0.53790  0.36938  1.0000 -0.1136550686
C   C68       1.0  0.46770  0.26239  0.16307  1.0000 0.0787503542
C   C69       1.0  0.42110  0.31432  0.21961  1.0000 -0.2024690515
C   C70       1.0  0.32990  0.36517  0.20097  1.0000 0.1207628402
C   C71       1.0  0.28970  0.36028  0.12389  1.0000 -0.1869272112
C   C72       1.0  0.34290  0.30843  0.07027  1.0000 0.0855814001
C   C73       1.0  0.39600  0.08169  0.90600  1.0000 0.541881013
C   C74       1.0  0.32000  0.03598  0.85035  1.0000 -0.0134082259
C   C75       1.0  0.36330  0.97593  0.79840  1.0000 -0.1527504443
C   C76       1.0  0.29650  0.93651  0.74263  1.0000 0.0579098792
C   C77       1.0  0.18250  0.95540  0.74070  1.0000 -0.1316295477
C   C78       1.0  0.13880  0.01260  0.79480  1.0000 -0.0945982604
C   C79       1.0  0.20650  0.05320  0.84900  1.0000 -0.1136550686
C   C80       1.0  0.43000  0.81979  0.70759  1.0000 -0.2024690515
C   C81       1.0  0.47680  0.76683  0.65215  1.0000 0.0787503542
C   C82       1.0  0.34670  0.87610  0.68538  1.0000 0.1207628402
C   C83       1.0  0.31310  0.87455  0.60687  1.0000 -0.1869272112
C   C84       1.0  0.36420  0.81931  0.55529  1.0000 0.0855814001
C   C85       1.0  0.61450  0.08360  0.09093  1.0000 0.541881013
C   C86       1.0  0.69340  0.02987  0.13796  1.0000 -0.0134082259
C   C87       1.0  0.64990  0.97151  0.19147  1.0000 -0.1527504443
C   C88       1.0  0.71940  0.92385  0.24033  1.0000 0.0579098792
C   C89       1.0  0.83490  0.93410  0.23343  1.0000 -0.1316295477
C   C90       1.0  0.87840  0.98960  0.17760  1.0000 -0.0961933776
C   C91       1.0  0.80870  0.03790  0.13062  1.0000 -0.1136550686
C   C92       1.0  0.53230  0.76239  0.33693  1.0000 0.0787503542
C   C93       1.0  0.57890  0.81432  0.28039  1.0000 -0.2024690515
C   C94       1.0  0.67010  0.86517  0.29903  1.0000 0.1207628402
C   C95       1.0  0.71030  0.86028  0.37611  1.0000 -0.1869272112
C   C96       1.0  0.65710  0.80843  0.42973  1.0000 0.0855814001
N   N1        1.0  0.94548  0.73416  0.42383  1.0000 -0.2415882765
N   N2        1.0  0.06921  0.74054  0.58850  1.0000 -0.2415882765
N   N3        1.0  0.05452  0.23416  0.07617  1.0000 -0.2415882765
N   N4        1.0  0.93079  0.24054  0.91150  1.0000 -0.2415882765
N   N5        1.0  0.55452  0.26584  0.92383  1.0000 -0.2415882765
N   N6        1.0  0.43079  0.25946  0.08850  1.0000 -0.2415882765
N   N7        1.0  0.44548  0.76584  0.57617  1.0000 -0.2415882765
N   N8        1.0  0.56921  0.75946  0.41150  1.0000 -0.2415882765
O   O1        1.0  0.99847  0.43134  0.09609  1.0000 -0.5403887549
O   O2        1.0  0.85272  0.36388  0.04727  1.0000 -0.549484523
O   O3        1.0  0.01176  0.42992  0.90518  1.0000 -0.529384744
O   O4        1.0  0.15299  0.35710  0.95103  1.0000 -0.549484523
O   O5        1.0  0.00153  0.93134  0.40391  1.0000 -0.5403887549
O   O6        1.0  0.14728  0.86388  0.45273  1.0000 -0.549484523
O   O7        1.0  0.98824  0.92992  0.59482  1.0000 -0.529384744
O   O8        1.0  0.84701  0.85710  0.54897  1.0000 -0.5403887549
O   O9        1.0  0.50153  0.56866  0.59609  1.0000 -0.5403887549
O   O10       1.0  0.64728  0.63612  0.54727  1.0000 -0.549484523
O   O11       1.0  0.48824  0.57008  0.40518  1.0000 -0.529384744
O   O12       1.0  0.34701  0.64290  0.45103  1.0000 -0.5403887549
O   O13       1.0  0.49847  0.06866  0.90391  1.0000 -0.5403887549
O   O14       1.0  0.35272  0.13612  0.95273  1.0000 -0.549484523
O   O15       1.0  0.51176  0.07008  0.09482  1.0000 -0.529384744
O   O16       1.0  0.65299  0.14290  0.04897  1.0000 -0.549484523
