# DDEC6 charges by PACMAN v1.1 (https://github.com/mtap-research/PACMAN-charge/)
data_ja7b03397_si_001_ASR_pacman
_symmetry_space_group_name_H-M   'P 1'
_cell_length_a   14.06800000
_cell_length_b   14.06800000
_cell_length_c   12.28900000
_cell_angle_alpha   90.00000000
_cell_angle_beta   90.00000000
_cell_angle_gamma   90.00000000
_symmetry_Int_Tables_number   1
_chemical_formula_structural   InH6C16(SO7)2
_chemical_formula_sum   'In2 H12 C32 S4 O28'
_cell_volume   2432.09908034
_cell_formula_units_Z   2
loop_
 _symmetry_equiv_pos_site_id
 _symmetry_equiv_pos_as_xyz
  1  'x, y, z'
loop_
 _atom_site_type_symbol
 _atom_site_label
 _atom_site_symmetry_multiplicity
 _atom_site_fract_x
 _atom_site_fract_y
 _atom_site_fract_z
 _atom_site_occupancy
 _atom_site_charge
In  In1  1  0.00000000  0.00000000  0.50000000  1.0 1.2587245927
In  In2  1  0.50000000  0.50000000  0.50000000  1.0 1.2587245927
H  H1  1  0.12010000  0.17830000  0.78430000  1.0 0.081600257
H  H2  1  0.87990000  0.82170000  0.78430000  1.0 0.081600257
H  H3  1  0.82170000  0.12010000  0.21570000  1.0 0.081600257
H  H4  1  0.17830000  0.87990000  0.21570000  1.0 0.081600257
H  H5  1  0.62010000  0.32170000  0.21570000  1.0 0.081600257
H  H6  1  0.37990000  0.67830000  0.21570000  1.0 0.081600257
H  H7  1  0.32170000  0.37990000  0.78430000  1.0 0.081600257
H  H8  1  0.67830000  0.62010000  0.78430000  1.0 0.0851072297
H  H9  1  0.23350000  0.26650000  0.50080000  1.0 0.1223416218
H  H10  1  0.76650000  0.73350000  0.50080000  1.0 0.1223416218
H  H11  1  0.73350000  0.23350000  0.49920000  1.0 0.1223416218
H  H12  1  0.26650000  0.76650000  0.49920000  1.0 0.1223416218
C  C1  1  0.16840000  0.21070000  0.63230000  1.0 -0.0899308609
C  C2  1  0.16160000  0.21700000  0.74540000  1.0 -0.1778387203
C  C3  1  0.10970000  0.13860000  0.57420000  1.0 0.4877038152
C  C4  1  0.83160000  0.78930000  0.63230000  1.0 -0.0899308609
C  C5  1  0.83840000  0.78300000  0.74540000  1.0 -0.1578439697
C  C6  1  0.89030000  0.86140000  0.57420000  1.0 0.4877038152
C  C7  1  0.78930000  0.16840000  0.36770000  1.0 -0.0899308609
C  C8  1  0.78300000  0.16160000  0.25460000  1.0 -0.1778387203
C  C9  1  0.86140000  0.10970000  0.42580000  1.0 0.4877038152
C  C10  1  0.21070000  0.83160000  0.36770000  1.0 -0.0899308609
C  C11  1  0.21700000  0.83840000  0.25460000  1.0 -0.1698501556
C  C12  1  0.13860000  0.89030000  0.42580000  1.0 0.4877038152
C  C13  1  0.66840000  0.28930000  0.36770000  1.0 -0.0899308609
C  C14  1  0.66160000  0.28300000  0.25460000  1.0 -0.1778387203
C  C15  1  0.60970000  0.36140000  0.42580000  1.0 0.4877038152
C  C16  1  0.33160000  0.71070000  0.36770000  1.0 -0.0899308609
C  C17  1  0.33840000  0.71700000  0.25460000  1.0 -0.1698501556
C  C18  1  0.39030000  0.63860000  0.42580000  1.0 0.4877038152
C  C19  1  0.28930000  0.33160000  0.63230000  1.0 -0.0899308609
C  C20  1  0.28300000  0.33840000  0.74540000  1.0 -0.1778387203
C  C21  1  0.36140000  0.39030000  0.57420000  1.0 0.4877038152
C  C22  1  0.71070000  0.66840000  0.63230000  1.0 -0.0899308609
C  C23  1  0.71700000  0.66160000  0.74540000  1.0 -0.1578439697
C  C24  1  0.63860000  0.60970000  0.57420000  1.0 0.4877038152
C  C25  1  0.21810000  0.28190000  0.79680000  1.0 -0.1033282292
C  C26  1  0.23080000  0.26920000  0.57640000  1.0 -0.0669205961
C  C27  1  0.78190000  0.71810000  0.79680000  1.0 -0.0899308609
C  C28  1  0.76920000  0.73080000  0.57640000  1.0 -0.0498023014
C  C29  1  0.71810000  0.21810000  0.20320000  1.0 -0.1033282292
C  C30  1  0.73080000  0.23080000  0.42360000  1.0 -0.0669205961
C  C31  1  0.28190000  0.78190000  0.20320000  1.0 -0.1033282292
C  C32  1  0.26920000  0.76920000  0.42360000  1.0 -0.0587115934
S  S1  1  0.18340000  0.31660000  0.93890000  0.5 0.1597624099
S  S2  1  0.24680000  0.25320000  0.94540000  0.5 0.1774762646
S  S3  1  0.81660000  0.68340000  0.93890000  0.5 0.1597624099
S  S4  1  0.75320000  0.74680000  0.94540000  0.5 0.1904838756
S  S5  1  0.68340000  0.18340000  0.06110000  0.5 0.1597624099
S  S6  1  0.74680000  0.24680000  0.05460000  0.5 0.1774762646
S  S7  1  0.31660000  0.81660000  0.06110000  0.5 0.1652317271
S  S8  1  0.25320000  0.75320000  0.05460000  0.5 0.1774762646
O  O1  1  0.06230000  0.08040000  0.63360000  1.0 -0.5868179971
O  O2  1  0.10740000  0.13240000  0.47730000  1.0 -0.4710014424
O  O3  1  0.93770000  0.91960000  0.63360000  1.0 -0.5838523581
O  O4  1  0.89260000  0.86760000  0.47730000  1.0 -0.4710014424
O  O5  1  0.91960000  0.06230000  0.36640000  1.0 -0.5868179971
O  O6  1  0.86760000  0.10740000  0.52270000  1.0 -0.4710014424
O  O7  1  0.08040000  0.93770000  0.36640000  1.0 -0.5838523581
O  O8  1  0.13240000  0.89260000  0.52270000  1.0 -0.4710014424
O  O9  1  0.56230000  0.41960000  0.36640000  1.0 -0.5868179971
O  O10  1  0.60740000  0.36760000  0.52270000  1.0 -0.4710014424
O  O11  1  0.43770000  0.58040000  0.36640000  1.0 -0.5868179971
O  O12  1  0.39260000  0.63240000  0.52270000  1.0 -0.4710014424
O  O13  1  0.41960000  0.43770000  0.63360000  1.0 -0.5868179971
O  O14  1  0.36760000  0.39260000  0.47730000  1.0 -0.4710014424
O  O15  1  0.58040000  0.56230000  0.63360000  1.0 -0.5868179971
O  O16  1  0.63240000  0.60740000  0.47730000  1.0 -0.4710014424
O  O17  1  0.34870000  0.25000000  0.96300000  0.25 0.0423772112
O  O18  1  0.16700000  0.19400000  0.97700000  0.25 0.081600257
O  O19  1  0.21800000  0.33400000  0.01100000  0.25 0.1376432788
O  O20  1  0.65130000  0.75000000  0.96300000  0.25 0.0474805386
O  O21  1  0.83300000  0.80600000  0.97700000  0.25 0.081600257
O  O22  1  0.78200000  0.66600000  0.01100000  0.25 0.1376432788
O  O23  1  0.75000000  0.34870000  0.03700000  0.25 0.0423772112
O  O24  1  0.80600000  0.16700000  0.02300000  0.25 0.081600257
O  O25  1  0.66600000  0.21800000  0.98900000  0.25 0.1376432788
O  O26  1  0.25000000  0.65130000  0.03700000  0.25 0.0474805386
O  O27  1  0.19400000  0.83300000  0.02300000  0.25 0.0851072297
O  O28  1  0.33400000  0.78200000  0.98900000  0.25 0.1376432788
O  O29  1  0.84870000  0.25000000  0.03700000  0.25 0.0423772112
O  O30  1  0.66700000  0.30600000  0.02300000  0.25 0.081600257
O  O31  1  0.71800000  0.16600000  0.98900000  0.25 0.1322358996
O  O32  1  0.15130000  0.75000000  0.03700000  0.25 0.0423772112
O  O33  1  0.33300000  0.69400000  0.02300000  0.25 0.067716241
O  O34  1  0.28200000  0.83400000  0.98900000  0.25 0.1322358996
O  O35  1  0.25000000  0.15130000  0.96300000  0.25 0.0423772112
O  O36  1  0.30600000  0.33300000  0.97700000  0.25 0.081600257
O  O37  1  0.16600000  0.28200000  0.01100000  0.25 0.1376432788
O  O38  1  0.75000000  0.84870000  0.96300000  0.25 0.0423772112
O  O39  1  0.69400000  0.66700000  0.97700000  0.25 0.067716241
O  O40  1  0.83400000  0.71800000  0.01100000  0.25 0.1322358996
O  O41  1  0.20280000  0.41570000  0.96000000  0.5 -0.0498023014
O  O42  1  0.79720000  0.58430000  0.96000000  0.5 -0.0392678077
O  O43  1  0.58430000  0.20280000  0.04000000  0.5 -0.0498023014
O  O44  1  0.41570000  0.79720000  0.04000000  0.5 -0.0392678077
O  O45  1  0.70280000  0.08430000  0.04000000  0.5 -0.0498023014
O  O46  1  0.29720000  0.91570000  0.04000000  0.5 -0.0392678077
O  O47  1  0.08430000  0.29720000  0.96000000  0.5 -0.0587115934
O  O48  1  0.91570000  0.70280000  0.96000000  0.5 -0.0392678077
O  O49  1  0.24650000  0.25350000  0.99700000  0.5 0.1322358996
O  O50  1  0.75350000  0.74650000  0.99700000  0.5 0.1478758827
O  O51  1  0.74650000  0.24650000  0.00300000  0.5 0.1376432788
O  O52  1  0.25350000  0.75350000  0.00300000  0.5 0.1376432788
