# DDEC6 charges by PACMAN v1.1 (https://github.com/mtap-research/PACMAN-charge/)
data_c8dt01923a2_FSR_pacman
_symmetry_space_group_name_H-M   'P 1'
_cell_length_a   17.42700000
_cell_length_b   22.78520000
_cell_length_c   25.23500000
_cell_angle_alpha   90.00000000
_cell_angle_beta   90.00000000
_cell_angle_gamma   90.00000000
_symmetry_Int_Tables_number   1
_chemical_formula_structural   Zn4H19C45(NO13)2
_chemical_formula_sum   'Zn16 H76 C180 N8 O104'
_cell_volume   10020.25526489
_cell_formula_units_Z   4
loop_
 _symmetry_equiv_pos_site_id
 _symmetry_equiv_pos_as_xyz
  1  'x, y, z'
loop_
 _atom_site_type_symbol
 _atom_site_label
 _atom_site_symmetry_multiplicity
 _atom_site_fract_x
 _atom_site_fract_y
 _atom_site_fract_z
 _atom_site_occupancy
 _atom_site_charge
Zn  Zn1  1  0.25399000  0.25017000  0.99524000  1.0 0.952914774
Zn  Zn2  1  0.58680000  0.24371000  0.98866000  1.0 0.9396685954
Zn  Zn3  1  0.58536000  0.45148000  0.64625000  1.0 1.1528827097
Zn  Zn4  1  0.41777000  0.37211000  0.71332000  1.0 1.0767471042
Zn  Zn5  1  0.24601000  0.74983000  0.49524000  1.0 0.952914774
Zn  Zn6  1  0.91320000  0.75629000  0.48866000  1.0 0.9396685954
Zn  Zn7  1  0.91464000  0.54852000  0.14625000  1.0 1.1528827097
Zn  Zn8  1  0.08223000  0.62789000  0.21332000  1.0 1.0715362277
Zn  Zn9  1  0.74601000  0.75017000  0.50476000  1.0 0.952914774
Zn  Zn10  1  0.41320000  0.74371000  0.51134000  1.0 0.9396685954
Zn  Zn11  1  0.41464000  0.95148000  0.85375000  1.0 1.1528827097
Zn  Zn12  1  0.58223000  0.87211000  0.78668000  1.0 1.0767471042
Zn  Zn13  1  0.75399000  0.24983000  0.00476000  1.0 0.952914774
Zn  Zn14  1  0.08680000  0.25629000  0.01134000  1.0 0.9396685954
Zn  Zn15  1  0.08536000  0.04852000  0.35375000  1.0 1.1528827097
Zn  Zn16  1  0.91777000  0.12789000  0.28668000  1.0 1.0715362277
H  H1  1  0.81506000  0.34668000  0.85842000  1.0 0.1314522285
H  H2  1  0.74669000  0.58406000  0.57275000  1.0 0.14888355
H  H3  1  0.07772000  0.54283000  0.59020000  1.0 0.1314522285
H  H4  1  0.42499000  0.25816000  0.02285000  1.0 0.1567505259
H  H5  1  0.40986000  0.57448000  0.59157000  1.0 0.14888355
H  H6  1  0.58800000  0.31975000  0.83369000  1.0 0.1402701545
H  H7  1  0.97382000  0.57970000  0.55465000  1.0 0.1314522285
H  H8  1  0.28100000  0.43927000  0.63290000  1.0 0.1402701545
H  H9  1  0.02848000  0.34547000  0.86111000  1.0 0.1314522285
H  H10  1  0.91994000  0.34318000  0.80347000  1.0 0.1402701545
H  H11  1  0.18308000  0.57643000  0.56165000  1.0 0.1314522285
H  H12  1  0.25453000  0.32753000  0.84216000  1.0 0.14888355
H  H13  1  0.86355000  0.44454000  0.62390000  1.0 0.1314522285
H  H14  1  0.71678000  0.40414000  0.72412000  1.0 0.1314522285
H  H15  1  0.80869000  0.47869000  0.74162000  1.0 0.14888355
H  H16  1  0.03963000  0.47849000  0.74185000  1.0 0.14888355
H  H17  1  0.18502000  0.39000000  0.61464000  1.0 0.14888355
H  H18  1  0.12924000  0.40241000  0.72869000  1.0 0.1314522285
H  H19  1  0.95838000  0.39245000  0.58864000  1.0 0.14888355
H  H20  1  0.68494000  0.65332000  0.35842000  1.0 0.1314522285
H  H21  1  0.75331000  0.41594000  0.07275000  1.0 0.14888355
H  H22  1  0.42228000  0.45717000  0.09020000  1.0 0.1314522285
H  H23  1  0.07501000  0.74184000  0.52285000  1.0 0.1567505259
H  H24  1  0.09014000  0.42552000  0.09157000  1.0 0.14888355
H  H25  1  0.91200000  0.68025000  0.33369000  1.0 0.1402701545
H  H26  1  0.52618000  0.42030000  0.05465000  1.0 0.1314522285
H  H27  1  0.21900000  0.56073000  0.13290000  1.0 0.1402701545
H  H28  1  0.47152000  0.65453000  0.36111000  1.0 0.1314522285
H  H29  1  0.58006000  0.65682000  0.30347000  1.0 0.1402701545
H  H30  1  0.31692000  0.42357000  0.06165000  1.0 0.1314522285
H  H31  1  0.24547000  0.67247000  0.34216000  1.0 0.14888355
H  H32  1  0.63645000  0.55546000  0.12390000  1.0 0.1314522285
H  H33  1  0.78322000  0.59586000  0.22412000  1.0 0.1314522285
H  H34  1  0.69131000  0.52131000  0.24162000  1.0 0.14888355
H  H35  1  0.46037000  0.52151000  0.24185000  1.0 0.14888355
H  H36  1  0.31498000  0.61000000  0.11464000  1.0 0.14888355
H  H37  1  0.37076000  0.59759000  0.22869000  1.0 0.1314522285
H  H38  1  0.54162000  0.60755000  0.08864000  1.0 0.14888355
H  H39  1  0.18494000  0.84668000  0.64158000  1.0 0.1314522285
H  H40  1  0.25331000  0.08406000  0.92725000  1.0 0.14888355
H  H41  1  0.92228000  0.04283000  0.90980000  1.0 0.1314522285
H  H42  1  0.57501000  0.75816000  0.47715000  1.0 0.1567505259
H  H43  1  0.59014000  0.07448000  0.90843000  1.0 0.14888355
H  H44  1  0.41200000  0.81975000  0.66631000  1.0 0.1402701545
H  H45  1  0.02618000  0.07970000  0.94535000  1.0 0.1314522285
H  H46  1  0.71900000  0.93927000  0.86710000  1.0 0.1402701545
H  H47  1  0.97152000  0.84547000  0.63889000  1.0 0.1314522285
H  H48  1  0.08006000  0.84318000  0.69653000  1.0 0.1402701545
H  H49  1  0.81692000  0.07643000  0.93835000  1.0 0.1314522285
H  H50  1  0.74547000  0.82753000  0.65784000  1.0 0.14888355
H  H51  1  0.13645000  0.94454000  0.87610000  1.0 0.1314522285
H  H52  1  0.28322000  0.90414000  0.77588000  1.0 0.1314522285
H  H53  1  0.19131000  0.97869000  0.75838000  1.0 0.14888355
H  H54  1  0.96037000  0.97849000  0.75815000  1.0 0.14888355
H  H55  1  0.81498000  0.89000000  0.88536000  1.0 0.14888355
H  H56  1  0.87076000  0.90241000  0.77131000  1.0 0.1314522285
H  H57  1  0.04162000  0.89245000  0.91136000  1.0 0.14888355
H  H58  1  0.31506000  0.15332000  0.14158000  1.0 0.1314522285
H  H59  1  0.24669000  0.91594000  0.42725000  1.0 0.14888355
H  H60  1  0.57772000  0.95717000  0.40980000  1.0 0.1314522285
H  H61  1  0.92499000  0.24184000  0.97715000  1.0 0.14888355
H  H62  1  0.90986000  0.92552000  0.40843000  1.0 0.14888355
H  H63  1  0.08800000  0.18025000  0.16631000  1.0 0.1402701545
H  H64  1  0.47382000  0.92030000  0.44535000  1.0 0.1314522285
H  H65  1  0.78100000  0.06073000  0.36710000  1.0 0.1402701545
H  H66  1  0.52848000  0.15453000  0.13889000  1.0 0.1314522285
H  H67  1  0.41994000  0.15682000  0.19653000  1.0 0.1402701545
H  H68  1  0.68308000  0.92357000  0.43835000  1.0 0.1314522285
H  H69  1  0.75453000  0.17247000  0.15784000  1.0 0.14888355
H  H70  1  0.36355000  0.05546000  0.37610000  1.0 0.1314522285
H  H71  1  0.21678000  0.09586000  0.27588000  1.0 0.1314522285
H  H72  1  0.30869000  0.02131000  0.25838000  1.0 0.14888355
H  H73  1  0.53963000  0.02151000  0.25815000  1.0 0.14888355
H  H74  1  0.68502000  0.11000000  0.38536000  1.0 0.14888355
H  H75  1  0.62924000  0.09759000  0.27131000  1.0 0.1314522285
H  H76  1  0.45838000  0.10755000  0.41136000  1.0 0.14888355
C  C1  1  0.77180000  0.35090000  0.83720000  1.0 -0.138734125
C  C2  1  0.70010000  0.32660000  0.85430000  1.0 -0.0210794645
C  C3  1  0.77730000  0.37990000  0.79070000  1.0 0.0687888708
C  C4  1  0.35650000  0.50190000  0.61250000  1.0 -0.0621408181
C  C5  1  0.79300000  0.56420000  0.57590000  1.0 -0.0807753941
C  C6  1  0.85960000  0.59040000  0.55870000  1.0 -0.0101760844
C  C7  1  0.07590000  0.50220000  0.59380000  1.0 -0.1615309496
C  C8  1  0.42180000  0.24350000  0.98850000  1.0 0.5204575356
C  C9  1  0.36230000  0.55590000  0.59200000  1.0 -0.0739580508
C  C10  1  0.85710000  0.65090000  0.53640000  1.0 0.603643867
C  C11  1  0.29650000  0.58570000  0.57070000  1.0 -0.0101760844
C  C12  1  0.93140000  0.50410000  0.58630000  1.0 0.0687888708
C  C13  1  0.00470000  0.47360000  0.59390000  1.0 0.0978795752
C  C14  1  0.85190000  0.40740000  0.77370000  1.0 0.1186854649
C  C15  1  0.14710000  0.30080000  0.91200000  1.0 0.6081721142
C  C16  1  0.63520000  0.33430000  0.82250000  1.0 -0.0807753941
C  C17  1  0.14110000  0.32800000  0.85900000  1.0 -0.0210794645
C  C18  1  0.92850000  0.56130000  0.56480000  1.0 -0.1285965881
C  C19  1  0.22000000  0.50320000  0.59620000  1.0 0.0774911489
C  C20  1  0.30370000  0.64480000  0.54460000  1.0 0.6081721142
C  C21  1  0.28550000  0.47570000  0.61650000  1.0 -0.1004111249
C  C22  1  0.06490000  0.37670000  0.79030000  1.0 0.0774911489
C  C23  1  0.07200000  0.34930000  0.84010000  1.0 -0.1285965881
C  C24  1  0.69320000  0.29610000  0.90640000  1.0 0.603643867
C  C25  1  0.92100000  0.37960000  0.78680000  1.0 -0.180000318
C  C26  1  0.22680000  0.55770000  0.57440000  1.0 -0.1285965881
C  C27  1  0.99040000  0.40540000  0.77540000  1.0 0.111018621
C  C28  1  0.20640000  0.33590000  0.82810000  1.0 -0.0858586882
C  C29  1  0.86270000  0.48000000  0.60570000  1.0 -0.138734125
C  C30  1  0.71230000  0.38590000  0.75700000  1.0 -0.1228478555
C  C31  1  0.79410000  0.50890000  0.59770000  1.0 0.0111100356
C  C32  1  0.92370000  0.48580000  0.73710000  1.0 0.0609852575
C  C33  1  0.64080000  0.36370000  0.77430000  1.0 -0.0621408181
C  C34  1  0.14430000  0.47080000  0.59910000  1.0 0.111018621
C  C35  1  0.57460000  0.37090000  0.73970000  1.0 0.5811327543
C  C36  1  0.85430000  0.45960000  0.74980000  1.0 -0.1508783205
C  C37  1  0.27230000  0.35950000  0.73980000  1.0 0.5467162575
C  C38  1  0.42350000  0.47280000  0.63570000  1.0 0.5811327543
C  C39  1  0.72290000  0.47620000  0.61910000  1.0 0.5204575356
C  C40  1  0.99330000  0.46030000  0.74980000  1.0 -0.180000318
C  C41  1  0.14100000  0.41160000  0.60740000  1.0 -0.1615309496
C  C42  1  0.13090000  0.38160000  0.76040000  1.0 -0.138734125
C  C43  1  0.20020000  0.35630000  0.77640000  1.0 0.0154870363
C  C44  1  0.00340000  0.41340000  0.59460000  1.0 -0.1690329764
C  C45  1  0.07150000  0.38560000  0.60470000  1.0 0.0933790277
C  C46  1  0.72820000  0.64910000  0.33720000  1.0 -0.138734125
C  C47  1  0.79990000  0.67340000  0.35430000  1.0 -0.0210794645
C  C48  1  0.72270000  0.62010000  0.29070000  1.0 0.0687888708
C  C49  1  0.14350000  0.49810000  0.11250000  1.0 -0.0621408181
C  C50  1  0.70700000  0.43580000  0.07590000  1.0 -0.0807753941
C  C51  1  0.64040000  0.40960000  0.05870000  1.0 -0.0101760844
C  C52  1  0.42410000  0.49780000  0.09380000  1.0 -0.1615309496
C  C53  1  0.07820000  0.75650000  0.48850000  1.0 0.5204575356
C  C54  1  0.13770000  0.44410000  0.09200000  1.0 -0.0739580508
C  C55  1  0.64290000  0.34910000  0.03640000  1.0 0.603643867
C  C56  1  0.20350000  0.41430000  0.07070000  1.0 -0.0101760844
C  C57  1  0.56860000  0.49590000  0.08630000  1.0 0.0687888708
C  C58  1  0.49530000  0.52640000  0.09390000  1.0 0.0978795752
C  C59  1  0.64810000  0.59260000  0.27370000  1.0 0.1186854649
C  C60  1  0.35290000  0.69920000  0.41200000  1.0 0.6081721142
C  C61  1  0.86480000  0.66570000  0.32250000  1.0 -0.0807753941
C  C62  1  0.35890000  0.67200000  0.35900000  1.0 -0.0210794645
C  C63  1  0.57150000  0.43870000  0.06480000  1.0 -0.1285965881
C  C64  1  0.28000000  0.49680000  0.09620000  1.0 0.0774911489
C  C65  1  0.19630000  0.35520000  0.04460000  1.0 0.6081721142
C  C66  1  0.21450000  0.52430000  0.11650000  1.0 -0.1004111249
C  C67  1  0.43510000  0.62330000  0.29030000  1.0 0.0774911489
C  C68  1  0.42800000  0.65070000  0.34010000  1.0 -0.1285965881
C  C69  1  0.80680000  0.70390000  0.40640000  1.0 0.6081721142
C  C70  1  0.57900000  0.62040000  0.28680000  1.0 -0.180000318
C  C71  1  0.27320000  0.44230000  0.07440000  1.0 -0.1285965881
C  C72  1  0.50960000  0.59460000  0.27540000  1.0 0.111018621
C  C73  1  0.29360000  0.66410000  0.32810000  1.0 -0.0807753941
C  C74  1  0.63730000  0.52000000  0.10570000  1.0 -0.138734125
C  C75  1  0.78770000  0.61410000  0.25700000  1.0 -0.1228478555
C  C76  1  0.70590000  0.49110000  0.09770000  1.0 0.0111100356
C  C77  1  0.57630000  0.51420000  0.23710000  1.0 0.0609852575
C  C78  1  0.85920000  0.63630000  0.27430000  1.0 -0.0621408181
C  C79  1  0.35570000  0.52920000  0.09910000  1.0 0.111018621
C  C80  1  0.92540000  0.62910000  0.23970000  1.0 0.5811327543
C  C81  1  0.64570000  0.54040000  0.24980000  1.0 -0.1508783205
C  C82  1  0.22770000  0.64050000  0.23980000  1.0 0.5467162575
C  C83  1  0.07650000  0.52720000  0.13570000  1.0 0.5811327543
C  C84  1  0.77710000  0.52380000  0.11910000  1.0 0.5204575356
C  C85  1  0.50670000  0.53970000  0.24980000  1.0 -0.180000318
C  C86  1  0.35900000  0.58840000  0.10740000  1.0 -0.1615309496
C  C87  1  0.36910000  0.61840000  0.26040000  1.0 -0.1508783205
C  C88  1  0.29980000  0.64370000  0.27640000  1.0 0.0111100356
C  C89  1  0.49660000  0.58660000  0.09460000  1.0 -0.1690329764
C  C90  1  0.42850000  0.61440000  0.10470000  1.0 0.0933790277
C  C91  1  0.22820000  0.85090000  0.66280000  1.0 -0.138734125
C  C92  1  0.29990000  0.82660000  0.64570000  1.0 -0.0210794645
C  C93  1  0.22270000  0.87990000  0.70930000  1.0 0.0687888708
C  C94  1  0.64350000  0.00190000  0.88750000  1.0 -0.0621408181
C  C95  1  0.20700000  0.06420000  0.92410000  1.0 -0.0807753941
C  C96  1  0.14040000  0.09040000  0.94130000  1.0 -0.0101760844
C  C97  1  0.92410000  0.00220000  0.90620000  1.0 -0.1615309496
C  C98  1  0.57820000  0.74350000  0.51150000  1.0 0.5204575356
C  C99  1  0.63770000  0.05590000  0.90800000  1.0 -0.0739580508
C  C100  1  0.14290000  0.15090000  0.96360000  1.0 0.603643867
C  C101  1  0.70350000  0.08570000  0.92930000  1.0 -0.0101760844
C  C102  1  0.06860000  0.00410000  0.91370000  1.0 0.0687888708
C  C103  1  0.99530000  0.97360000  0.90610000  1.0 0.0978795752
C  C104  1  0.14810000  0.90740000  0.72630000  1.0 0.1186854649
C  C105  1  0.85290000  0.80080000  0.58800000  1.0 0.6081721142
C  C106  1  0.36480000  0.83430000  0.67750000  1.0 -0.0807753941
C  C107  1  0.85890000  0.82800000  0.64100000  1.0 -0.0210794645
C  C108  1  0.07150000  0.06130000  0.93520000  1.0 -0.1285965881
C  C109  1  0.78000000  0.00320000  0.90380000  1.0 0.0774911489
C  C110  1  0.69630000  0.14480000  0.95540000  1.0 0.6081721142
C  C111  1  0.71450000  0.97570000  0.88350000  1.0 -0.1004111249
C  C112  1  0.93510000  0.87670000  0.70970000  1.0 0.0774911489
C  C113  1  0.92800000  0.84930000  0.65990000  1.0 -0.1285965881
C  C114  1  0.30680000  0.79610000  0.59360000  1.0 0.6081721142
C  C115  1  0.07900000  0.87960000  0.71320000  1.0 -0.1690329764
C  C116  1  0.77320000  0.05770000  0.92560000  1.0 -0.1285965881
C  C117  1  0.00960000  0.90540000  0.72460000  1.0 0.111018621
C  C118  1  0.79360000  0.83590000  0.67190000  1.0 -0.0807753941
C  C119  1  0.13730000  0.98000000  0.89430000  1.0 -0.138734125
C  C120  1  0.28770000  0.88590000  0.74300000  1.0 -0.1228478555
C  C121  1  0.20590000  0.00890000  0.90230000  1.0 0.0111100356
C  C122  1  0.07630000  0.98580000  0.76290000  1.0 0.0609852575
C  C123  1  0.35920000  0.86370000  0.72570000  1.0 -0.0621408181
C  C124  1  0.85570000  0.97080000  0.90090000  1.0 0.111018621
C  C125  1  0.42540000  0.87090000  0.76030000  1.0 0.5811327543
C  C126  1  0.14570000  0.95960000  0.75020000  1.0 -0.1508783205
C  C127  1  0.72770000  0.85950000  0.76020000  1.0 0.5467162575
C  C128  1  0.57650000  0.97280000  0.86430000  1.0 0.5811327543
C  C129  1  0.27710000  0.97620000  0.88090000  1.0 0.5204575356
C  C130  1  0.00670000  0.96030000  0.75020000  1.0 -0.180000318
C  C131  1  0.85900000  0.91160000  0.89260000  1.0 -0.1615309496
C  C132  1  0.86910000  0.88160000  0.73960000  1.0 -0.1508783205
C  C133  1  0.79980000  0.85630000  0.72360000  1.0 0.0154870363
C  C134  1  0.99660000  0.91340000  0.90540000  1.0 -0.1690329764
C  C135  1  0.92850000  0.88560000  0.89530000  1.0 0.0933790277
C  C136  1  0.27180000  0.14910000  0.16280000  1.0 -0.138734125
C  C137  1  0.20010000  0.17340000  0.14570000  1.0 -0.0210794645
C  C138  1  0.27730000  0.12010000  0.20930000  1.0 0.0687888708
C  C139  1  0.85650000  0.99810000  0.38750000  1.0 -0.0621408181
C  C140  1  0.29300000  0.93580000  0.42410000  1.0 -0.0807753941
C  C141  1  0.35960000  0.90960000  0.44130000  1.0 -0.0101760844
C  C142  1  0.57590000  0.99780000  0.40620000  1.0 -0.1615309496
C  C143  1  0.92180000  0.25650000  0.01150000  1.0 0.5204575356
C  C144  1  0.86230000  0.94410000  0.40800000  1.0 -0.0739580508
C  C145  1  0.35710000  0.84910000  0.46360000  1.0 0.603643867
C  C146  1  0.79650000  0.91430000  0.42930000  1.0 -0.0101760844
C  C147  1  0.43140000  0.99590000  0.41370000  1.0 0.0687888708
C  C148  1  0.50470000  0.02640000  0.40610000  1.0 0.0978795752
C  C149  1  0.35190000  0.09260000  0.22630000  1.0 0.1186854649
C  C150  1  0.64710000  0.19920000  0.08800000  1.0 0.6081721142
C  C151  1  0.13520000  0.16570000  0.17750000  1.0 -0.0807753941
C  C152  1  0.64110000  0.17200000  0.14100000  1.0 -0.0210794645
C  C153  1  0.42850000  0.93870000  0.43520000  1.0 -0.1285965881
C  C154  1  0.72000000  0.99680000  0.40380000  1.0 0.0774911489
C  C155  1  0.80370000  0.85520000  0.45540000  1.0 0.6081721142
C  C156  1  0.78550000  0.02430000  0.38350000  1.0 -0.1004111249
C  C157  1  0.56490000  0.12330000  0.20970000  1.0 0.0774911489
C  C158  1  0.57200000  0.15070000  0.15990000  1.0 -0.1285965881
C  C159  1  0.19320000  0.20390000  0.09360000  1.0 0.6081721142
C  C160  1  0.42100000  0.12040000  0.21320000  1.0 -0.1690329764
C  C161  1  0.72680000  0.94230000  0.42560000  1.0 -0.1285965881
C  C162  1  0.49040000  0.09460000  0.22460000  1.0 0.111018621
C  C163  1  0.70640000  0.16410000  0.17190000  1.0 -0.0807753941
C  C164  1  0.36270000  0.02000000  0.39430000  1.0 -0.138734125
C  C165  1  0.21230000  0.11410000  0.24300000  1.0 -0.1228478555
C  C166  1  0.29410000  0.99110000  0.40230000  1.0 0.0111100356
C  C167  1  0.42370000  0.01420000  0.26290000  1.0 0.0609852575
C  C168  1  0.14080000  0.13630000  0.22570000  1.0 -0.0621408181
C  C169  1  0.64430000  0.02920000  0.40090000  1.0 0.111018621
C  C170  1  0.07460000  0.12910000  0.26030000  1.0 0.5811327543
C  C171  1  0.35430000  0.04040000  0.25020000  1.0 -0.1508783205
C  C172  1  0.77230000  0.14050000  0.26020000  1.0 0.5442370023
C  C173  1  0.92350000  0.02720000  0.36430000  1.0 0.5811327543
C  C174  1  0.22290000  0.02380000  0.38090000  1.0 0.5204575356
C  C175  1  0.49330000  0.03970000  0.25020000  1.0 -0.180000318
C  C176  1  0.64100000  0.08840000  0.39260000  1.0 -0.1615309496
C  C177  1  0.63090000  0.11840000  0.23960000  1.0 -0.138734125
C  C178  1  0.70020000  0.14370000  0.22360000  1.0 0.0154870363
C  C179  1  0.50340000  0.08660000  0.40540000  1.0 -0.1690329764
C  C180  1  0.57150000  0.11440000  0.39530000  1.0 0.0933790277
N  N1  1  0.92800000  0.54270000  0.71400000  1.0 0.4936956908
N  N2  1  0.07300000  0.32000000  0.61270000  1.0 0.5204575356
N  N3  1  0.57200000  0.45730000  0.21400000  1.0 0.4936956908
N  N4  1  0.42700000  0.68000000  0.11270000  1.0 0.5204575356
N  N5  1  0.07200000  0.04270000  0.78600000  1.0 0.4936956908
N  N6  1  0.92700000  0.82000000  0.88730000  1.0 0.5204575356
N  N7  1  0.42800000  0.95730000  0.28600000  1.0 0.4953509118
N  N8  1  0.57300000  0.18000000  0.38730000  1.0 0.5204575356
O  O1  1  0.48081000  0.23182000  0.96437000  1.0 -0.3985314745
O  O2  1  0.62697000  0.28200000  0.92205000  1.0 -0.5301220769
O  O3  1  0.75518000  0.28479000  0.93164000  1.0 -0.5500889871
O  O4  1  0.91870000  0.67448000  0.52350000  1.0 -0.5301220769
O  O5  1  0.24376000  0.67065000  0.52815000  1.0 -0.5500889871
O  O6  1  0.08710000  0.29327000  0.93835000  1.0 -0.5370432755
O  O7  1  0.35684000  0.23590000  0.96764000  1.0 -0.4257675861
O  O8  1  0.79130000  0.67150000  0.53007000  1.0 -0.5176477069
O  O9  1  0.21420000  0.28980000  0.92841000  1.0 -0.5176477069
O  O10  1  0.37115000  0.66610000  0.54023000  1.0 -0.5301220769
O  O11  1  0.51010000  0.35710000  0.75870000  1.0 -0.5176477069
O  O12  1  0.98930000  0.56610000  0.69970000  1.0 -0.3170683909
O  O13  1  0.58290000  0.38420000  0.69210000  1.0 -0.5370432755
O  O14  1  0.72720000  0.42750000  0.63630000  1.0 -0.4712719847
O  O15  1  0.33401000  0.35540000  0.76270000  1.0 -0.5176477069
O  O16  1  0.65900000  0.50930000  0.61210000  1.0 -0.5301220769
O  O17  1  0.48780000  0.49590000  0.62890000  1.0 -0.5038425678
O  O18  1  0.57700000  0.40030000  0.58420000  1.0 -0.4231195404
O  O19  1  0.26140000  0.36040000  0.69050000  1.0 -0.5126142229
O  O20  1  0.86780000  0.57250000  0.70680000  1.0 -0.327660864
O  O21  1  0.59020000  0.49830000  0.71830000  1.0 -0.2213436469
O  O22  1  0.41700000  0.42330000  0.65560000  1.0 -0.5370432755
O  O23  1  0.41890000  0.29600000  0.67210000  1.0 -0.327660864
O  O24  1  0.00910000  0.29840000  0.63010000  1.0 -0.3688139472
O  O25  1  0.13270000  0.29120000  0.60110000  1.0 -0.3064616848
O  O26  1  0.42240000  0.46730000  0.75180000  1.0 0.1567505259
O  O27  1  0.01919000  0.76818000  0.46437000  1.0 -0.3985314745
O  O28  1  0.87303000  0.71800000  0.42205000  1.0 -0.5301220769
O  O29  1  0.74482000  0.71521000  0.43164000  1.0 -0.5500889871
O  O30  1  0.58130000  0.32552000  0.02350000  1.0 -0.5176477069
O  O31  1  0.25624000  0.32935000  0.02815000  1.0 -0.5500889871
O  O32  1  0.41290000  0.70673000  0.43835000  1.0 -0.5370432755
O  O33  1  0.14316000  0.76410000  0.46764000  1.0 -0.4257675861
O  O34  1  0.70870000  0.32850000  0.03007000  1.0 -0.5176477069
O  O35  1  0.28580000  0.71020000  0.42841000  1.0 -0.5176477069
O  O36  1  0.12885000  0.33390000  0.04023000  1.0 -0.5301220769
O  O37  1  0.98990000  0.64290000  0.25870000  1.0 -0.5126142229
O  O38  1  0.51070000  0.43390000  0.19970000  1.0 -0.3170683909
O  O39  1  0.91710000  0.61580000  0.19210000  1.0 -0.5370432755
O  O40  1  0.77280000  0.57250000  0.13630000  1.0 -0.4712719847
O  O41  1  0.16599000  0.64460000  0.26270000  1.0 -0.5126142229
O  O42  1  0.84100000  0.49070000  0.11210000  1.0 -0.5301220769
O  O43  1  0.01220000  0.50410000  0.12890000  1.0 -0.5038425678
O  O44  1  0.92300000  0.59970000  0.08420000  1.0 -0.4231195404
O  O45  1  0.23860000  0.63960000  0.19050000  1.0 -0.5176477069
O  O46  1  0.63220000  0.42750000  0.20680000  1.0 -0.327660864
O  O47  1  0.90980000  0.50170000  0.21830000  1.0 -0.2213436469
O  O48  1  0.08300000  0.57670000  0.15560000  1.0 -0.5301220769
O  O49  1  0.08110000  0.70400000  0.17210000  1.0 -0.3442879174
O  O50  1  0.49090000  0.70160000  0.13010000  1.0 -0.3688139472
O  O51  1  0.36730000  0.70880000  0.10110000  1.0 -0.3064616848
O  O52  1  0.07760000  0.53270000  0.25180000  1.0 0.14888355
O  O53  1  0.51919000  0.73182000  0.53563000  1.0 -0.3985314745
O  O54  1  0.37303000  0.78200000  0.57795000  1.0 -0.5301220769
O  O55  1  0.24482000  0.78479000  0.56836000  1.0 -0.5500889871
O  O56  1  0.08130000  0.17448000  0.97650000  1.0 -0.5301220769
O  O57  1  0.75624000  0.17065000  0.97185000  1.0 -0.5500889871
O  O58  1  0.91290000  0.79327000  0.56165000  1.0 -0.5370432755
O  O59  1  0.64316000  0.73590000  0.53236000  1.0 -0.4257675861
O  O60  1  0.20870000  0.17150000  0.96993000  1.0 -0.5176477069
O  O61  1  0.78580000  0.78980000  0.57159000  1.0 -0.5176477069
O  O62  1  0.62885000  0.16610000  0.95977000  1.0 -0.5301220769
O  O63  1  0.48990000  0.85710000  0.74130000  1.0 -0.5176477069
O  O64  1  0.01070000  0.06610000  0.80030000  1.0 -0.3170683909
O  O65  1  0.41710000  0.88420000  0.80790000  1.0 -0.5370432755
O  O66  1  0.27280000  0.92750000  0.86370000  1.0 -0.4712719847
O  O67  1  0.66599000  0.85540000  0.73730000  1.0 -0.5176477069
O  O68  1  0.34100000  0.00930000  0.88790000  1.0 -0.5301220769
O  O69  1  0.51220000  0.99590000  0.87110000  1.0 -0.5126142229
O  O70  1  0.42300000  0.90030000  0.91580000  1.0 -0.4257675861
O  O71  1  0.73860000  0.86040000  0.80950000  1.0 -0.5126142229
O  O72  1  0.13220000  0.07250000  0.79320000  1.0 -0.327660864
O  O73  1  0.40980000  0.99830000  0.78170000  1.0 -0.2281816308
O  O74  1  0.58300000  0.92330000  0.84440000  1.0 -0.5301220769
O  O75  1  0.58110000  0.79600000  0.82790000  1.0 -0.327660864
O  O76  1  0.99090000  0.79840000  0.86990000  1.0 -0.3688139472
O  O77  1  0.86730000  0.79120000  0.89890000  1.0 -0.3064616848
O  O78  1  0.57760000  0.96730000  0.74820000  1.0 0.14888355
O  O79  1  0.98081000  0.26818000  0.03563000  1.0 -0.3985314745
O  O80  1  0.12697000  0.21800000  0.07795000  1.0 -0.5301220769
O  O81  1  0.25518000  0.21521000  0.06836000  1.0 -0.5500889871
O  O82  1  0.41870000  0.82552000  0.47650000  1.0 -0.5301220769
O  O83  1  0.74376000  0.82935000  0.47185000  1.0 -0.5500889871
O  O84  1  0.58710000  0.20673000  0.06165000  1.0 -0.5370432755
O  O85  1  0.85684000  0.26410000  0.03236000  1.0 -0.4231195404
O  O86  1  0.29130000  0.82850000  0.46993000  1.0 -0.5176477069
O  O87  1  0.71420000  0.21020000  0.07159000  1.0 -0.5176477069
O  O88  1  0.87115000  0.83390000  0.45977000  1.0 -0.5301220769
O  O89  1  0.01010000  0.14290000  0.24130000  1.0 -0.5126142229
O  O90  1  0.48930000  0.93390000  0.30030000  1.0 -0.3170683909
O  O91  1  0.08290000  0.11580000  0.30790000  1.0 -0.5370432755
O  O92  1  0.22720000  0.07250000  0.36370000  1.0 -0.4712719847
O  O93  1  0.83401000  0.14460000  0.23730000  1.0 -0.5126142229
O  O94  1  0.15900000  0.99070000  0.38790000  1.0 -0.5301220769
O  O95  1  0.98780000  0.00410000  0.37110000  1.0 -0.5038425678
O  O96  1  0.07700000  0.09970000  0.41580000  1.0 -0.4257675861
O  O97  1  0.76140000  0.13960000  0.30950000  1.0 -0.5176477069
O  O98  1  0.36780000  0.92750000  0.29320000  1.0 -0.327660864
O  O99  1  0.09020000  0.00170000  0.28170000  1.0 -0.2213436469
O  O100  1  0.91700000  0.07670000  0.34440000  1.0 -0.5301220769
O  O101  1  0.91890000  0.20400000  0.32790000  1.0 -0.3442879174
O  O102  1  0.50910000  0.20160000  0.36990000  1.0 -0.3688139472
O  O103  1  0.63270000  0.20880000  0.39890000  1.0 -0.3064616848
O  O104  1  0.92240000  0.03270000  0.24820000  1.0 0.14888355
