# DDEC6 charges by PACMAN v1.1 (https://github.com/mtap-research/PACMAN-charge/)
data_c7cc06125k5_3_FSR_pacman
_symmetry_space_group_name_H-M   'P 1'
_cell_length_a   19.35960000
_cell_length_b   19.35960000
_cell_length_c   14.13360000
_cell_angle_alpha   90.00000000
_cell_angle_beta   90.00000000
_cell_angle_gamma   90.00000000
_symmetry_Int_Tables_number   1
_chemical_formula_structural   Zn16H32C128S16.08N32O64
_chemical_formula_sum   'Zn16 H32 C128 S16.08 N32 O64'
_cell_volume   5297.19006362
_cell_formula_units_Z   1
loop_
 _symmetry_equiv_pos_site_id
 _symmetry_equiv_pos_as_xyz
  1  'x, y, z'
loop_
 _atom_site_type_symbol
 _atom_site_label
 _atom_site_symmetry_multiplicity
 _atom_site_fract_x
 _atom_site_fract_y
 _atom_site_fract_z
 _atom_site_occupancy
 _atom_site_charge
Zn  Zn1  1  0.49259000  0.03637000  0.64206000  1.0 0.892745176
Zn  Zn2  1  0.50741000  0.96363000  0.14206000  1.0 0.892745176
Zn  Zn3  1  0.53637000  0.00741000  0.39206000  1.0 0.892745176
Zn  Zn4  1  0.46363000  0.99259000  0.89206000  1.0 0.892745176
Zn  Zn5  1  0.99259000  0.46363000  0.10794000  1.0 0.892745176
Zn  Zn6  1  0.00741000  0.53637000  0.60794000  1.0 0.892745176
Zn  Zn7  1  0.03637000  0.49259000  0.35794000  1.0 0.892745176
Zn  Zn8  1  0.96363000  0.50741000  0.85794000  1.0 0.892745176
Zn  Zn9  1  0.53555000  0.46445000  0.25000000  1.0 0.7725199328
Zn  Zn10  1  0.46445000  0.53555000  0.75000000  1.0 0.7725199328
Zn  Zn11  1  0.96445000  0.96445000  0.00000000  1.0 0.7725199328
Zn  Zn12  1  0.03555000  0.03555000  0.50000000  1.0 0.7725199328
Zn  Zn13  1  0.49187000  0.49187000  0.50000000  1.0 0.7993967549
Zn  Zn14  1  0.50813000  0.50813000  0.00000000  1.0 0.7993967549
Zn  Zn15  1  0.99187000  0.00813000  0.25000000  1.0 0.7993967549
Zn  Zn16  1  0.00813000  0.99187000  0.75000000  1.0 0.7993967549
H  H1  1  0.49030000  0.85210000  0.56310000  1.0 0.1348756121
H  H2  1  0.50970000  0.14790000  0.06310000  1.0 0.1348756121
H  H3  1  0.35210000  0.00970000  0.31310000  1.0 0.1348756121
H  H4  1  0.64790000  0.99030000  0.81310000  1.0 0.1348756121
H  H5  1  0.99030000  0.64790000  0.18690000  1.0 0.1348756121
H  H6  1  0.00970000  0.35210000  0.68690000  1.0 0.1348756121
H  H7  1  0.85210000  0.49030000  0.43690000  1.0 0.1348756121
H  H8  1  0.14790000  0.50970000  0.93690000  1.0 0.1348756121
H  H9  1  0.48350000  0.74260000  0.49190000  1.0 0.1076254861
H  H10  1  0.51650000  0.25740000  0.99190000  1.0 0.1076254861
H  H11  1  0.24260000  0.01650000  0.24190000  1.0 0.1076254861
H  H12  1  0.75740000  0.98350000  0.74190000  1.0 0.1076254861
H  H13  1  0.98350000  0.75740000  0.25810000  1.0 0.1076254861
H  H14  1  0.01650000  0.24260000  0.75810000  1.0 0.1076254861
H  H15  1  0.74260000  0.48350000  0.50810000  1.0 0.1076254861
H  H16  1  0.25740000  0.51650000  0.00810000  1.0 0.1076254861
H  H17  1  0.35090000  0.43640000  0.17960000  1.0 0.1076254861
H  H18  1  0.64910000  0.56360000  0.67960000  1.0 0.1076254861
H  H19  1  0.93640000  0.14910000  0.92960000  1.0 0.1076254861
H  H20  1  0.06360000  0.85090000  0.42960000  1.0 0.1076254861
H  H21  1  0.85090000  0.06360000  0.57040000  1.0 0.1076254861
H  H22  1  0.14910000  0.93640000  0.07040000  1.0 0.1076254861
H  H23  1  0.43640000  0.35090000  0.82040000  1.0 0.1076254861
H  H24  1  0.56360000  0.64910000  0.32040000  1.0 0.1076254861
H  H25  1  0.24120000  0.42780000  0.11210000  1.0 0.1076254861
H  H26  1  0.75880000  0.57220000  0.61210000  1.0 0.1076254861
H  H27  1  0.92780000  0.25880000  0.86210000  1.0 0.1076254861
H  H28  1  0.07220000  0.74120000  0.36210000  1.0 0.1076254861
H  H29  1  0.74120000  0.07220000  0.63790000  1.0 0.1076254861
H  H30  1  0.25880000  0.92780000  0.13790000  1.0 0.1076254861
H  H31  1  0.42780000  0.24120000  0.88790000  1.0 0.1076254861
H  H32  1  0.57220000  0.75880000  0.38790000  1.0 0.1076254861
C  C1  1  0.48330000  0.89310000  0.73660000  1.0 0.5912482158
C  C2  1  0.51670000  0.10690000  0.23660000  1.0 0.5912482158
C  C3  1  0.39310000  0.01670000  0.48660000  1.0 0.5912482158
C  C4  1  0.60690000  0.98330000  0.98660000  1.0 0.5912482158
C  C5  1  0.98330000  0.60690000  0.01340000  1.0 0.5912482158
C  C6  1  0.01670000  0.39310000  0.51340000  1.0 0.5912482158
C  C7  1  0.89310000  0.48330000  0.26340000  1.0 0.5912482158
C  C8  1  0.10690000  0.51670000  0.76340000  1.0 0.5912482158
C  C9  1  0.48370000  0.82170000  0.69720000  1.0 -0.0898850181
C  C10  1  0.51630000  0.17830000  0.19720000  1.0 -0.0898850181
C  C11  1  0.32170000  0.01630000  0.44720000  1.0 -0.0898850181
C  C12  1  0.67830000  0.98370000  0.94720000  1.0 -0.0898850181
C  C13  1  0.98370000  0.67830000  0.05280000  1.0 -0.0898850181
C  C14  1  0.01630000  0.32170000  0.55280000  1.0 -0.0898850181
C  C15  1  0.82170000  0.48370000  0.30280000  1.0 -0.0898850181
C  C16  1  0.17830000  0.51630000  0.80280000  1.0 -0.0898850181
C  C17  1  0.48640000  0.81260000  0.60260000  1.0 -0.0898850181
C  C18  1  0.51360000  0.18740000  0.10260000  1.0 -0.0898850181
C  C19  1  0.31260000  0.01360000  0.35260000  1.0 -0.0898850181
C  C20  1  0.68740000  0.98640000  0.85260000  1.0 -0.0898850181
C  C21  1  0.98640000  0.68740000  0.14740000  1.0 -0.0898850181
C  C22  1  0.01360000  0.31260000  0.64740000  1.0 -0.0898850181
C  C23  1  0.81260000  0.48640000  0.39740000  1.0 -0.0898850181
C  C24  1  0.18740000  0.51360000  0.89740000  1.0 -0.0898850181
C  C25  1  0.48370000  0.74510000  0.55900000  1.0 -0.1119125755
C  C26  1  0.51630000  0.25490000  0.05900000  1.0 -0.1119125755
C  C27  1  0.24510000  0.01630000  0.30900000  1.0 -0.1119125755
C  C28  1  0.75490000  0.98370000  0.80900000  1.0 -0.1119125755
C  C29  1  0.98370000  0.75490000  0.19100000  1.0 -0.1119125755
C  C30  1  0.01630000  0.24510000  0.69100000  1.0 -0.1119125755
C  C31  1  0.74510000  0.48370000  0.44100000  1.0 -0.1119125755
C  C32  1  0.25490000  0.51630000  0.94100000  1.0 -0.1119125755
C  C33  1  0.48150000  0.68540000  0.60820000  1.0 -0.1401166752
C  C34  1  0.51850000  0.31460000  0.10820000  1.0 -0.1401166752
C  C35  1  0.18540000  0.01850000  0.35820000  1.0 -0.1401166752
C  C36  1  0.81460000  0.98150000  0.85820000  1.0 -0.1401166752
C  C37  1  0.98150000  0.81460000  0.14180000  1.0 -0.1401166752
C  C38  1  0.01850000  0.18540000  0.64180000  1.0 -0.1401166752
C  C39  1  0.68540000  0.48150000  0.39180000  1.0 -0.1401166752
C  C40  1  0.31460000  0.51850000  0.89180000  1.0 -0.1401166752
C  C41  1  0.47410000  0.69330000  0.70740000  1.0 0.117604314
C  C42  1  0.52590000  0.30670000  0.20740000  1.0 0.117604314
C  C43  1  0.19330000  0.02590000  0.45740000  1.0 0.117604314
C  C44  1  0.80670000  0.97410000  0.95740000  1.0 0.117604314
C  C45  1  0.97410000  0.80670000  0.04260000  1.0 0.117604314
C  C46  1  0.02590000  0.19330000  0.54260000  1.0 0.117604314
C  C47  1  0.69330000  0.47410000  0.29260000  1.0 0.117604314
C  C48  1  0.30670000  0.52590000  0.79260000  1.0 0.117604314
C  C49  1  0.47350000  0.76040000  0.75150000  1.0 0.1487795279
C  C50  1  0.52650000  0.23960000  0.25150000  1.0 0.1487795279
C  C51  1  0.26040000  0.02650000  0.50150000  1.0 0.1487795279
C  C52  1  0.73960000  0.97350000  0.00150000  1.0 0.1487795279
C  C53  1  0.97350000  0.73960000  0.99850000  1.0 0.1487795279
C  C54  1  0.02650000  0.26040000  0.49850000  1.0 0.1487795279
C  C55  1  0.76040000  0.47350000  0.24850000  1.0 0.1487795279
C  C56  1  0.23960000  0.52650000  0.74850000  1.0 0.1487795279
C  C57  1  0.48600000  0.61790000  0.55890000  1.0 0.4660970808
C  C58  1  0.51400000  0.38210000  0.05890000  1.0 0.4660970808
C  C59  1  0.11790000  0.01400000  0.30890000  1.0 0.4660970808
C  C60  1  0.88210000  0.98600000  0.80890000  1.0 0.4660970808
C  C61  1  0.98600000  0.88210000  0.19110000  1.0 0.4660970808
C  C62  1  0.01400000  0.11790000  0.69110000  1.0 0.4660970808
C  C63  1  0.61790000  0.48600000  0.44110000  1.0 0.4660970808
C  C64  1  0.38210000  0.51400000  0.94110000  1.0 0.4660970808
C  C65  1  0.39350000  0.47640000  0.34540000  1.0 0.5071064697
C  C66  1  0.60650000  0.52360000  0.84540000  1.0 0.5071064697
C  C67  1  0.97640000  0.10650000  0.09540000  1.0 0.5071064697
C  C68  1  0.02360000  0.89350000  0.59540000  1.0 0.5071064697
C  C69  1  0.89350000  0.02360000  0.40460000  1.0 0.5071064697
C  C70  1  0.10650000  0.97640000  0.90460000  1.0 0.5071064697
C  C71  1  0.47640000  0.39350000  0.65460000  1.0 0.5071064697
C  C72  1  0.52360000  0.60650000  0.15460000  1.0 0.5071064697
C  C73  1  0.32100000  0.47420000  0.30730000  1.0 -0.0954994841
C  C74  1  0.67900000  0.52580000  0.80730000  1.0 -0.0954994841
C  C75  1  0.97420000  0.17900000  0.05730000  1.0 -0.0954994841
C  C76  1  0.02580000  0.82100000  0.55730000  1.0 -0.0954994841
C  C77  1  0.82100000  0.02580000  0.44270000  1.0 -0.0954994841
C  C78  1  0.17900000  0.97420000  0.94270000  1.0 -0.0954994841
C  C79  1  0.47420000  0.32100000  0.69270000  1.0 -0.0954994841
C  C80  1  0.52580000  0.67900000  0.19270000  1.0 -0.0954994841
C  C81  1  0.31180000  0.44990000  0.21560000  1.0 -0.1119125755
C  C82  1  0.68820000  0.55010000  0.71560000  1.0 -0.1119125755
C  C83  1  0.94990000  0.18820000  0.96560000  1.0 -0.1119125755
C  C84  1  0.05010000  0.81180000  0.46560000  1.0 -0.1119125755
C  C85  1  0.81180000  0.05010000  0.53440000  1.0 -0.1119125755
C  C86  1  0.18820000  0.94990000  0.03440000  1.0 -0.1119125755
C  C87  1  0.44990000  0.31180000  0.78440000  1.0 -0.1119125755
C  C88  1  0.55010000  0.68820000  0.28440000  1.0 -0.1119125755
C  C89  1  0.24520000  0.44490000  0.17490000  1.0 -0.1119125755
C  C90  1  0.75480000  0.55510000  0.67490000  1.0 -0.1119125755
C  C91  1  0.94490000  0.25480000  0.92490000  1.0 -0.1119125755
C  C92  1  0.05510000  0.74520000  0.42490000  1.0 -0.1119125755
C  C93  1  0.74520000  0.05510000  0.57510000  1.0 -0.1119125755
C  C94  1  0.25480000  0.94490000  0.07510000  1.0 -0.1119125755
C  C95  1  0.44490000  0.24520000  0.82510000  1.0 -0.1119125755
C  C96  1  0.55510000  0.75480000  0.32510000  1.0 -0.1119125755
C  C97  1  0.18620000  0.46360000  0.22200000  1.0 -0.0898850181
C  C98  1  0.81380000  0.53640000  0.72200000  1.0 -0.0898850181
C  C99  1  0.96360000  0.31380000  0.97200000  1.0 -0.0898850181
C  C100  1  0.03640000  0.68620000  0.47200000  1.0 -0.0898850181
C  C101  1  0.68620000  0.03640000  0.52800000  1.0 -0.0898850181
C  C102  1  0.31380000  0.96360000  0.02800000  1.0 -0.0898850181
C  C103  1  0.46360000  0.18620000  0.77800000  1.0 -0.0898850181
C  C104  1  0.53640000  0.81380000  0.27800000  1.0 -0.0898850181
C  C105  1  0.19420000  0.48250000  0.31830000  1.0 0.117604314
C  C106  1  0.80580000  0.51750000  0.81830000  1.0 0.117604314
C  C107  1  0.98250000  0.30580000  0.06830000  1.0 0.117604314
C  C108  1  0.01750000  0.69420000  0.56830000  1.0 0.117604314
C  C109  1  0.69420000  0.01750000  0.43170000  1.0 0.117604314
C  C110  1  0.30580000  0.98250000  0.93170000  1.0 0.117604314
C  C111  1  0.48250000  0.19420000  0.68170000  1.0 0.117604314
C  C112  1  0.51750000  0.80580000  0.18170000  1.0 0.117604314
C  C113  1  0.26120000  0.48720000  0.36130000  1.0 0.1487795279
C  C114  1  0.73880000  0.51280000  0.86130000  1.0 0.1487795279
C  C115  1  0.98720000  0.23880000  0.11130000  1.0 0.1487795279
C  C116  1  0.01280000  0.76120000  0.61130000  1.0 0.1487795279
C  C117  1  0.76120000  0.01280000  0.38870000  1.0 0.1487795279
C  C118  1  0.23880000  0.98720000  0.88870000  1.0 0.1487795279
C  C119  1  0.48720000  0.26120000  0.63870000  1.0 0.1487795279
C  C120  1  0.51280000  0.73880000  0.13870000  1.0 0.1487795279
C  C121  1  0.11820000  0.46300000  0.17260000  1.0 0.5538959221
C  C122  1  0.88180000  0.53700000  0.67260000  1.0 0.5538959221
C  C123  1  0.96300000  0.38180000  0.92260000  1.0 0.5538959221
C  C124  1  0.03700000  0.61820000  0.42260000  1.0 0.5538959221
C  C125  1  0.61820000  0.03700000  0.57740000  1.0 0.5538959221
C  C126  1  0.38180000  0.96300000  0.07740000  1.0 0.5538959221
C  C127  1  0.46300000  0.11820000  0.82740000  1.0 0.5538959221
C  C128  1  0.53700000  0.88180000  0.32740000  1.0 0.5538959221
S  S1  1  0.42150000  0.68400000  0.86400000  0.28 0.2697574028
S  S2  1  0.57850000  0.31600000  0.36400000  0.28 0.2697574028
S  S3  1  0.18400000  0.07850000  0.61400000  0.28 0.2697574028
S  S4  1  0.81600000  0.92150000  0.11400000  0.28 0.2697574028
S  S5  1  0.92150000  0.81600000  0.88600000  0.28 0.2697574028
S  S6  1  0.07850000  0.18400000  0.38600000  0.28 0.2697574028
S  S7  1  0.68400000  0.42150000  0.13600000  0.28 0.2697574028
S  S8  1  0.31600000  0.57850000  0.63600000  0.28 0.2697574028
S  S9  1  0.17770000  0.52570000  0.47310000  0.45 0.3611771294
S  S10  1  0.82230000  0.47430000  0.97310000  0.45 0.3611771294
S  S11  1  0.02570000  0.32230000  0.22310000  0.45 0.3611771294
S  S12  1  0.97430000  0.67770000  0.72310000  0.45 0.3611771294
S  S13  1  0.67770000  0.97430000  0.27690000  0.45 0.3611771294
S  S14  1  0.32230000  0.02570000  0.77690000  0.45 0.3611771294
S  S15  1  0.52570000  0.17770000  0.52690000  0.45 0.3611771294
S  S16  1  0.47430000  0.82230000  0.02690000  0.45 0.3611771294
S  S17  1  0.17880000  0.50250000  0.48480000  0.55 0.3611771294
S  S18  1  0.82120000  0.49750000  0.98480000  0.55 0.3611771294
S  S19  1  0.00250000  0.32120000  0.23480000  0.55 0.3611771294
S  S20  1  0.99750000  0.67880000  0.73480000  0.55 0.3611771294
S  S21  1  0.67880000  0.99750000  0.26520000  0.55 0.3611771294
S  S22  1  0.32120000  0.00250000  0.76520000  0.55 0.3611771294
S  S23  1  0.50250000  0.17880000  0.51520000  0.55 0.3611771294
S  S24  1  0.49750000  0.82120000  0.01520000  0.55 0.3611771294
S  S25  1  0.47320000  0.67515000  0.87347000  0.73 0.3321078696
S  S26  1  0.52680000  0.32485000  0.37347000  0.73 0.3321078696
S  S27  1  0.17515000  0.02680000  0.62347000  0.73 0.3321078696
S  S28  1  0.82485000  0.97320000  0.12347000  0.73 0.3321078696
S  S29  1  0.97320000  0.82485000  0.87653000  0.73 0.3321078696
S  S30  1  0.02680000  0.17515000  0.37653000  0.73 0.3321078696
S  S31  1  0.67515000  0.47320000  0.12653000  0.73 0.3321078696
S  S32  1  0.32485000  0.52680000  0.62653000  0.73 0.3321078696
N  N1  1  0.46810000  0.75630000  0.84400000  1.0 -0.3251229509
N  N2  1  0.53190000  0.24370000  0.34400000  1.0 -0.3247915789
N  N3  1  0.25630000  0.03190000  0.59400000  1.0 -0.3247915789
N  N4  1  0.74370000  0.96810000  0.09400000  1.0 -0.3251229509
N  N5  1  0.96810000  0.74370000  0.90600000  1.0 -0.3251229509
N  N6  1  0.03190000  0.25630000  0.40600000  1.0 -0.3247915789
N  N7  1  0.75630000  0.46810000  0.15600000  1.0 -0.3247915789
N  N8  1  0.24370000  0.53190000  0.65600000  1.0 -0.3251229509
N  N9  1  0.46670000  0.64320000  0.76900000  1.0 -0.307904078
N  N10  1  0.53330000  0.35680000  0.26900000  1.0 -0.307904078
N  N11  1  0.14320000  0.03330000  0.51900000  1.0 -0.307904078
N  N12  1  0.85680000  0.96670000  0.01900000  1.0 -0.307904078
N  N13  1  0.96670000  0.85680000  0.98100000  1.0 -0.307904078
N  N14  1  0.03330000  0.14320000  0.48100000  1.0 -0.307904078
N  N15  1  0.64320000  0.46670000  0.23100000  1.0 -0.307904078
N  N16  1  0.35680000  0.53330000  0.73100000  1.0 -0.307904078
N  N17  1  0.25910000  0.50610000  0.45210000  1.0 -0.3783268913
N  N18  1  0.74090000  0.49390000  0.95210000  1.0 -0.3783268913
N  N19  1  0.00610000  0.24090000  0.20210000  1.0 -0.3783268913
N  N20  1  0.99390000  0.75910000  0.70210000  1.0 -0.3783268913
N  N21  1  0.75910000  0.99390000  0.29790000  1.0 -0.3783268913
N  N22  1  0.24090000  0.00610000  0.79790000  1.0 -0.3783268913
N  N23  1  0.50610000  0.25910000  0.54790000  1.0 -0.3783268913
N  N24  1  0.49390000  0.74090000  0.04790000  1.0 -0.3783268913
N  N25  1  0.14400000  0.49630000  0.37910000  1.0 -0.3431837692
N  N26  1  0.85600000  0.50370000  0.87910000  1.0 -0.3431837692
N  N27  1  0.99630000  0.35600000  0.12910000  1.0 -0.3431837692
N  N28  1  0.00370000  0.64400000  0.62910000  1.0 -0.3431837692
N  N29  1  0.64400000  0.00370000  0.37090000  1.0 -0.3431837692
N  N30  1  0.35600000  0.99630000  0.87090000  1.0 -0.3431837692
N  N31  1  0.49630000  0.14400000  0.62090000  1.0 -0.3431837692
N  N32  1  0.50370000  0.85600000  0.12090000  1.0 -0.3431837692
O  O1  1  0.49540000  0.93783000  0.67830000  1.0 -0.5140326156
O  O2  1  0.50460000  0.06217000  0.17830000  1.0 -0.5140326156
O  O3  1  0.43783000  0.00460000  0.42830000  1.0 -0.5140326156
O  O4  1  0.56217000  0.99540000  0.92830000  1.0 -0.5140326156
O  O5  1  0.99540000  0.56217000  0.07170000  1.0 -0.5140326156
O  O6  1  0.00460000  0.43783000  0.57170000  1.0 -0.5140326156
O  O7  1  0.93783000  0.49540000  0.32170000  1.0 -0.5140326156
O  O8  1  0.06217000  0.50460000  0.82170000  1.0 -0.5140326156
O  O9  1  0.47170000  0.90275000  0.82040000  1.0 -0.5438810422
O  O10  1  0.52830000  0.09725000  0.32040000  1.0 -0.5438810422
O  O11  1  0.40275000  0.02830000  0.57040000  1.0 -0.5438810422
O  O12  1  0.59725000  0.97170000  0.07040000  1.0 -0.5438810422
O  O13  1  0.97170000  0.59725000  0.92960000  1.0 -0.5438810422
O  O14  1  0.02830000  0.40275000  0.42960000  1.0 -0.5438810422
O  O15  1  0.90275000  0.47170000  0.17960000  1.0 -0.5438810422
O  O16  1  0.09725000  0.52830000  0.67960000  1.0 -0.5438810422
O  O17  1  0.47706000  0.56277000  0.60490000  1.0 -0.5810955822
O  O18  1  0.52294000  0.43723000  0.10490000  1.0 -0.5810955822
O  O19  1  0.06277000  0.02294000  0.35490000  1.0 -0.5810955822
O  O20  1  0.93723000  0.97706000  0.85490000  1.0 -0.5810955822
O  O21  1  0.97706000  0.93723000  0.14510000  1.0 -0.5810955822
O  O22  1  0.02294000  0.06277000  0.64510000  1.0 -0.5810955822
O  O23  1  0.56277000  0.47706000  0.39510000  1.0 -0.5810955822
O  O24  1  0.43723000  0.52294000  0.89510000  1.0 -0.5810955822
O  O25  1  0.40353000  0.48640000  0.42900000  1.0 -0.4768361582
O  O26  1  0.59647000  0.51360000  0.92900000  1.0 -0.4768361582
O  O27  1  0.98640000  0.09647000  0.17900000  1.0 -0.4768361582
O  O28  1  0.01360000  0.90353000  0.67900000  1.0 -0.4768361582
O  O29  1  0.90353000  0.01360000  0.32100000  1.0 -0.4768361582
O  O30  1  0.09647000  0.98640000  0.82100000  1.0 -0.4768361582
O  O31  1  0.48640000  0.40353000  0.57100000  1.0 -0.4768361582
O  O32  1  0.51360000  0.59647000  0.07100000  1.0 -0.4768361582
O  O33  1  0.11520000  0.45540000  0.08730000  1.0 -0.4768361582
O  O34  1  0.88480000  0.54460000  0.58730000  1.0 -0.4768361582
O  O35  1  0.95540000  0.38480000  0.83730000  1.0 -0.4768361582
O  O36  1  0.04460000  0.61520000  0.33730000  1.0 -0.4768361582
O  O37  1  0.61520000  0.04460000  0.66270000  1.0 -0.4768361582
O  O38  1  0.38480000  0.95540000  0.16270000  1.0 -0.4768361582
O  O39  1  0.45540000  0.11520000  0.91270000  1.0 -0.4768361582
O  O40  1  0.54460000  0.88480000  0.41270000  1.0 -0.4768361582
O  O41  1  0.06270000  0.47141000  0.22093000  1.0 -0.5998058899
O  O42  1  0.93730000  0.52859000  0.72093000  1.0 -0.5998058899
O  O43  1  0.97141000  0.43730000  0.97093000  1.0 -0.5998058899
O  O44  1  0.02859000  0.56270000  0.47093000  1.0 -0.5998058899
O  O45  1  0.56270000  0.02859000  0.52907000  1.0 -0.5998058899
O  O46  1  0.43730000  0.97141000  0.02907000  1.0 -0.5998058899
O  O47  1  0.47141000  0.06270000  0.77907000  1.0 -0.5998058899
O  O48  1  0.52859000  0.93730000  0.27907000  1.0 -0.5998058899
O  O49  1  0.52600000  0.61390000  0.49300000  0.27 -0.1216299509
O  O50  1  0.47400000  0.38610000  0.99300000  0.27 -0.1216299509
O  O51  1  0.11390000  0.97400000  0.24300000  0.27 -0.1216299509
O  O52  1  0.88610000  0.02600000  0.74300000  0.27 -0.1216299509
O  O53  1  0.02600000  0.88610000  0.25700000  0.27 -0.1216299509
O  O54  1  0.97400000  0.11390000  0.75700000  0.27 -0.1216299509
O  O55  1  0.61390000  0.52600000  0.50700000  0.27 -0.1216299509
O  O56  1  0.38610000  0.47400000  0.00700000  0.27 -0.1216299509
O  O57  1  0.43620000  0.44300000  0.29770000  0.49 -0.2223366483
O  O58  1  0.56380000  0.55700000  0.79770000  0.49 -0.2223366483
O  O59  1  0.94300000  0.06380000  0.04770000  0.49 -0.2223366483
O  O60  1  0.05700000  0.93620000  0.54770000  0.49 -0.2223366483
O  O61  1  0.93620000  0.05700000  0.45230000  0.49 -0.2223366483
O  O62  1  0.06380000  0.94300000  0.95230000  0.49 -0.2223366483
O  O63  1  0.44300000  0.43620000  0.70230000  0.49 -0.2223366483
O  O64  1  0.55700000  0.56380000  0.20230000  0.49 -0.2223366483
O  O65  1  0.44070000  0.49120000  0.27780000  0.51 -0.1815248712
O  O66  1  0.55930000  0.50880000  0.77780000  0.51 -0.1815248712
O  O67  1  0.99120000  0.05930000  0.02780000  0.51 -0.1815248712
O  O68  1  0.00880000  0.94070000  0.52780000  0.51 -0.1815248712
O  O69  1  0.94070000  0.00880000  0.47220000  0.51 -0.1815248712
O  O70  1  0.05930000  0.99120000  0.97220000  0.51 -0.1815248712
O  O71  1  0.49120000  0.44070000  0.72220000  0.51 -0.1815248712
O  O72  1  0.50880000  0.55930000  0.22220000  0.51 -0.1815248712
O  O73  1  0.48990000  0.61740000  0.46800000  0.73 -0.1984306334
O  O74  1  0.51010000  0.38260000  0.96800000  0.73 -0.1984306334
O  O75  1  0.11740000  0.01010000  0.21800000  0.73 -0.1984306334
O  O76  1  0.88260000  0.98990000  0.71800000  0.73 -0.1984306334
O  O77  1  0.98990000  0.88260000  0.28200000  0.73 -0.1984306334
O  O78  1  0.01010000  0.11740000  0.78200000  0.73 -0.1984306334
O  O79  1  0.61740000  0.48990000  0.53200000  0.73 -0.1984306334
O  O80  1  0.38260000  0.51010000  0.03200000  0.73 -0.1984306334
