# generated by PACMAN-DDEC6 charge (https://github.com/sxm13/PACMAN/)
data_structure
_chemical_formula_sum              "Zn16 H36 C108 N12 O76"
_cell_length_a       18.1601
_cell_length_b       18.1601
_cell_length_c       18.1601
_cell_angle_alpha    90
_cell_angle_beta     90
_cell_angle_gamma    90

_symmetry_space_group_name_H-M    "P 1"
_symmetry_Int_Tables_number       1

loop_
  _symmetry_equiv_pos_as_xyz
  'x, y, z'

loop_
  _atom_site_type_symbol
  _atom_site_label
  _atom_site_symmetry_multiplicity
  _atom_site_fract_x
  _atom_site_fract_y
  _atom_site_fract_z
  _atom_site_occupancy
  _atom_site_charge
Zn  Zn1       1.0  0.02154  0.16248  0.07320  1.0000 0.9301315575
Zn  Zn2       1.0  0.07320  0.02154  0.16248  1.0000 0.9301315575
Zn  Zn3       1.0  0.16248  0.07320  0.02154  1.0000 0.9301315575
Zn  Zn4       1.0  0.33752  0.92680  0.52154  1.0000 0.9301315575
Zn  Zn5       1.0  0.57320  0.47846  0.83752  1.0000 0.9301315575
Zn  Zn6       1.0  0.83752  0.57320  0.47846  1.0000 0.9301315575
Zn  Zn7       1.0  0.42680  0.97846  0.66248  1.0000 0.9301315575
Zn  Zn8       1.0  0.92680  0.52154  0.33752  1.0000 0.9301315575
Zn  Zn9       1.0  0.66248  0.42680  0.97846  1.0000 0.9301315575
Zn  Zn10      1.0  0.47846  0.83752  0.57320  1.0000 0.9301315575
Zn  Zn11      1.0  0.52154  0.33752  0.92680  1.0000 0.9301315575
Zn  Zn12      1.0  0.97846  0.66248  0.42680  1.0000 0.9301315575
Zn  Zn13      1.0  0.00171  0.00171  0.00171  1.0000 0.8555336226
Zn  Zn14      1.0  0.49829  0.99829  0.50171  1.0000 0.8543348838
Zn  Zn15      1.0  0.50171  0.49829  0.99829  1.0000 0.8543348838
Zn  Zn16      1.0  0.99829  0.50171  0.49829  1.0000 0.8555336226
H   H1        1.0  0.60635  0.12687  0.96547  1.0000 0.1436686743
H   H2        1.0  0.96547  0.60635  0.12687  1.0000 0.1436686743
H   H3        1.0  0.12687  0.96547  0.60635  1.0000 0.1436686743
H   H4        1.0  0.37313  0.03453  0.10635  1.0000 0.1436686743
H   H5        1.0  0.46547  0.89365  0.87313  1.0000 0.1436686743
H   H6        1.0  0.87313  0.46547  0.89365  1.0000 0.1436686743
H   H7        1.0  0.53453  0.39365  0.62687  1.0000 0.1436686743
H   H8        1.0  0.03453  0.10635  0.37313  1.0000 0.1436686743
H   H9        1.0  0.62687  0.53453  0.39365  1.0000 0.1436686743
H   H10       1.0  0.89365  0.87313  0.46547  1.0000 0.1436686743
H   H11       1.0  0.10635  0.37313  0.03453  1.0000 0.1436686743
H   H12       1.0  0.39365  0.62687  0.53453  1.0000 0.1436686743
H   H13       1.0  0.79688  0.23633  0.00222  1.0000 0.1325881113
H   H14       1.0  0.00222  0.79688  0.23633  1.0000 0.1325881113
H   H15       1.0  0.23633  0.00222  0.79688  1.0000 0.1325881113
H   H16       1.0  0.26367  0.99778  0.29688  1.0000 0.1325881113
H   H17       1.0  0.50222  0.70312  0.76367  1.0000 0.1325881113
H   H18       1.0  0.76367  0.50222  0.70312  1.0000 0.1325881113
H   H19       1.0  0.49778  0.20312  0.73633  1.0000 0.1325881113
H   H20       1.0  0.99778  0.29688  0.26367  1.0000 0.1325881113
H   H21       1.0  0.73633  0.49778  0.20312  1.0000 0.1325881113
H   H22       1.0  0.70312  0.76367  0.50222  1.0000 0.1325881113
H   H23       1.0  0.29688  0.26367  0.99778  1.0000 0.1325881113
H   H24       1.0  0.20312  0.73633  0.49778  1.0000 0.1325881113
H   H25       1.0  0.79247  0.01210  0.99530  1.0000 0.1436686743
H   H26       1.0  0.99530  0.79247  0.01210  1.0000 0.1436686743
H   H27       1.0  0.01210  0.99530  0.79247  1.0000 0.1436686743
H   H28       1.0  0.48790  0.00470  0.29247  1.0000 0.1436686743
H   H29       1.0  0.49530  0.70753  0.98790  1.0000 0.1436686743
H   H30       1.0  0.98790  0.49530  0.70753  1.0000 0.1436686743
H   H31       1.0  0.50470  0.20753  0.51210  1.0000 0.1436686743
H   H32       1.0  0.00470  0.29247  0.48790  1.0000 0.1436686743
H   H33       1.0  0.51210  0.50470  0.20753  1.0000 0.1436686743
H   H34       1.0  0.70753  0.98790  0.49530  1.0000 0.1436686743
H   H35       1.0  0.29247  0.48790  0.00470  1.0000 0.1436686743
H   H36       1.0  0.20753  0.51210  0.50470  1.0000 0.1436686743
C   C1        1.0  0.65570  0.26340  0.97640  1.0000 0.6016317237
C   C2        1.0  0.97640  0.65570  0.26340  1.0000 0.6016317237
C   C3        1.0  0.26340  0.97640  0.65570  1.0000 0.6016317237
C   C4        1.0  0.23660  0.02360  0.15570  1.0000 0.6016317237
C   C5        1.0  0.47640  0.84430  0.73660  1.0000 0.6016317237
C   C6        1.0  0.73660  0.47640  0.84430  1.0000 0.6016317237
C   C7        1.0  0.52360  0.34430  0.76340  1.0000 0.6016317237
C   C8        1.0  0.02360  0.15570  0.23660  1.0000 0.6016317237
C   C9        1.0  0.76340  0.52360  0.34430  1.0000 0.6016317237
C   C10       1.0  0.84430  0.73660  0.47640  1.0000 0.6016317237
C   C11       1.0  0.15570  0.23660  0.02360  1.0000 0.6016317237
C   C12       1.0  0.34430  0.76340  0.52360  1.0000 0.6016317237
C   C13       1.0  0.69540  0.19250  0.98260  1.0000 -0.0189742852
C   C14       1.0  0.98260  0.69540  0.19250  1.0000 -0.0189742852
C   C15       1.0  0.19250  0.98260  0.69540  1.0000 -0.0189742852
C   C16       1.0  0.30750  0.01740  0.19540  1.0000 -0.0189742852
C   C17       1.0  0.48260  0.80460  0.80750  1.0000 -0.0189742852
C   C18       1.0  0.80750  0.48260  0.80460  1.0000 -0.0189742852
C   C19       1.0  0.51740  0.30460  0.69250  1.0000 -0.0189742852
C   C20       1.0  0.01740  0.19540  0.30750  1.0000 -0.0189742852
C   C21       1.0  0.69250  0.51740  0.30460  1.0000 -0.0189742852
C   C22       1.0  0.80460  0.80750  0.48260  1.0000 -0.0189742852
C   C23       1.0  0.19540  0.30750  0.01740  1.0000 -0.0189742852
C   C24       1.0  0.30460  0.69250  0.51740  1.0000 -0.0189742852
C   C25       1.0  0.60100  0.97470  0.00820  1.0000 0.5314881905
C   C26       1.0  0.00820  0.60100  0.97470  1.0000 0.5314881905
C   C27       1.0  0.97470  0.00820  0.60100  1.0000 0.5314881905
C   C28       1.0  0.52530  0.99180  0.10100  1.0000 0.5314881905
C   C29       1.0  0.50820  0.89900  0.02530  1.0000 0.5314881905
C   C30       1.0  0.02530  0.50820  0.89900  1.0000 0.5314881905
C   C31       1.0  0.49180  0.39900  0.47470  1.0000 0.5314881905
C   C32       1.0  0.99180  0.10100  0.52530  1.0000 0.5314881905
C   C33       1.0  0.47470  0.49180  0.39900  1.0000 0.5314881905
C   C34       1.0  0.89900  0.02530  0.50820  1.0000 0.5314881905
C   C35       1.0  0.10100  0.52530  0.99180  1.0000 0.5314881905
C   C36       1.0  0.39900  0.47470  0.49180  1.0000 0.5314881905
C   C37       1.0  0.65790  0.12640  0.97440  1.0000 -0.1834848023
C   C38       1.0  0.97440  0.65790  0.12640  1.0000 -0.1834848023
C   C39       1.0  0.12640  0.97440  0.65790  1.0000 -0.1834848023
C   C40       1.0  0.37360  0.02560  0.15790  1.0000 -0.1834848023
C   C41       1.0  0.47440  0.84210  0.87360  1.0000 -0.1834848023
C   C42       1.0  0.87360  0.47440  0.84210  1.0000 -0.1834848023
C   C43       1.0  0.52560  0.34210  0.62640  1.0000 -0.1834848023
C   C44       1.0  0.02560  0.15790  0.37360  1.0000 -0.1834848023
C   C45       1.0  0.62640  0.52560  0.34210  1.0000 -0.1834848023
C   C46       1.0  0.84210  0.87360  0.47440  1.0000 -0.1834848023
C   C47       1.0  0.15790  0.37360  0.02560  1.0000 -0.1834848023
C   C48       1.0  0.34210  0.62640  0.52560  1.0000 -0.1834848023
C   C49       1.0  0.69440  0.06050  0.97920  1.0000 0.2469646512
C   C50       1.0  0.97920  0.69440  0.06050  1.0000 0.2469646512
C   C51       1.0  0.06050  0.97920  0.69440  1.0000 0.2469646512
C   C52       1.0  0.43950  0.02080  0.19440  1.0000 0.2469646512
C   C53       1.0  0.47920  0.80560  0.93950  1.0000 0.2469646512
C   C54       1.0  0.93950  0.47920  0.80560  1.0000 0.2469646512
C   C55       1.0  0.52080  0.30560  0.56050  1.0000 0.2469646512
C   C56       1.0  0.02080  0.19440  0.43950  1.0000 0.2469646512
C   C57       1.0  0.56050  0.52080  0.30560  1.0000 0.2469646512
C   C58       1.0  0.80560  0.93950  0.47920  1.0000 0.2469646512
C   C59       1.0  0.19440  0.43950  0.02080  1.0000 0.2469646512
C   C60       1.0  0.30560  0.56050  0.52080  1.0000 0.2469646512
C   C61       1.0  0.77070  0.19150  0.99540  1.0000 -0.1146469112
C   C62       1.0  0.99540  0.77070  0.19150  1.0000 -0.1146469112
C   C63       1.0  0.19150  0.99540  0.77070  1.0000 -0.1146469112
C   C64       1.0  0.30850  0.00460  0.27070  1.0000 -0.1146469112
C   C65       1.0  0.49540  0.72930  0.80850  1.0000 -0.1146469112
C   C66       1.0  0.80850  0.49540  0.72930  1.0000 -0.1146469112
C   C67       1.0  0.50460  0.22930  0.69150  1.0000 -0.1146469112
C   C68       1.0  0.00460  0.27070  0.30850  1.0000 -0.1146469112
C   C69       1.0  0.69150  0.50460  0.22930  1.0000 -0.1146469112
C   C70       1.0  0.72930  0.80850  0.49540  1.0000 -0.1146469112
C   C71       1.0  0.27070  0.30850  0.00460  1.0000 -0.1146469112
C   C72       1.0  0.22930  0.69150  0.50460  1.0000 -0.1146469112
C   C73       1.0  0.88860  0.12010  0.01610  1.0000 0.5314881905
C   C74       1.0  0.01610  0.88860  0.12010  1.0000 0.5314881905
C   C75       1.0  0.12010  0.01610  0.88860  1.0000 0.5314881905
C   C76       1.0  0.37990  0.98390  0.38860  1.0000 0.5314881905
C   C77       1.0  0.51610  0.61140  0.87990  1.0000 0.5314881905
C   C78       1.0  0.87990  0.51610  0.61140  1.0000 0.5314881905
C   C79       1.0  0.48390  0.11140  0.62010  1.0000 0.5314881905
C   C80       1.0  0.98390  0.38860  0.37990  1.0000 0.5314881905
C   C81       1.0  0.62010  0.48390  0.11140  1.0000 0.5314881905
C   C82       1.0  0.61140  0.87990  0.51610  1.0000 0.5314881905
C   C83       1.0  0.38860  0.37990  0.98390  1.0000 0.5314881905
C   C84       1.0  0.11140  0.62010  0.48390  1.0000 0.5314881905
C   C85       1.0  0.76800  0.05820  0.99140  1.0000 -0.1913801279
C   C86       1.0  0.99140  0.76800  0.05820  1.0000 -0.1913801279
C   C87       1.0  0.05820  0.99140  0.76800  1.0000 -0.1913801279
C   C88       1.0  0.44180  0.00860  0.26800  1.0000 -0.1913801279
C   C89       1.0  0.49140  0.73200  0.94180  1.0000 -0.1913801279
C   C90       1.0  0.94180  0.49140  0.73200  1.0000 -0.1913801279
C   C91       1.0  0.50860  0.23200  0.55820  1.0000 -0.1913801279
C   C92       1.0  0.00860  0.26800  0.44180  1.0000 -0.1913801279
C   C93       1.0  0.55820  0.50860  0.23200  1.0000 -0.1913801279
C   C94       1.0  0.73200  0.94180  0.49140  1.0000 -0.1913801279
C   C95       1.0  0.26800  0.44180  0.00860  1.0000 -0.1913801279
C   C96       1.0  0.23200  0.55820  0.50860  1.0000 -0.1913801279
C   C97       1.0  0.80790  0.12390  0.99810  1.0000 0.0036592294
C   C98       1.0  0.99810  0.80790  0.12390  1.0000 0.0036592294
C   C99       1.0  0.12390  0.99810  0.80790  1.0000 0.0036592294
C   C100      1.0  0.37610  0.00190  0.30790  1.0000 0.0036592294
C   C101      1.0  0.49810  0.69210  0.87610  1.0000 0.0036592294
C   C102      1.0  0.87610  0.49810  0.69210  1.0000 0.0036592294
C   C103      1.0  0.50190  0.19210  0.62390  1.0000 0.0036592294
C   C104      1.0  0.00190  0.30790  0.37610  1.0000 0.0036592294
C   C105      1.0  0.62390  0.50190  0.19210  1.0000 0.0036592294
C   C106      1.0  0.69210  0.87610  0.49810  1.0000 0.0036592294
C   C107      1.0  0.30790  0.37610  0.00190  1.0000 0.0036592294
C   C108      1.0  0.19210  0.62390  0.50190  1.0000 0.0036592294
N   N1        1.0  0.56660  0.91590  0.98440  1.0000 -0.4592102638
N   N2        1.0  0.98440  0.56660  0.91590  1.0000 -0.4592102638
N   N3        1.0  0.91590  0.98440  0.56660  1.0000 -0.4592102638
N   N4        1.0  0.58410  0.01560  0.06660  1.0000 -0.4592102638
N   N5        1.0  0.48440  0.93340  0.08410  1.0000 -0.4592102638
N   N6        1.0  0.08410  0.48440  0.93340  1.0000 -0.4592102638
N   N7        1.0  0.51560  0.43340  0.41590  1.0000 -0.4592102638
N   N8        1.0  0.01560  0.06660  0.58410  1.0000 -0.4592102638
N   N9        1.0  0.41590  0.51560  0.43340  1.0000 -0.4592102638
N   N10       1.0  0.93340  0.08410  0.48440  1.0000 -0.4592102638
N   N11       1.0  0.06660  0.58410  0.01560  1.0000 -0.4592102638
N   N12       1.0  0.43340  0.41590  0.51560  1.0000 -0.4592102638
O   O1        1.0  0.06640  0.06640  0.06640  1.0000 -0.945319153
O   O2        1.0  0.43360  0.93360  0.56640  1.0000 -0.945319153
O   O3        1.0  0.56640  0.43360  0.93360  1.0000 -0.945319153
O   O4        1.0  0.93360  0.56640  0.43360  1.0000 -0.945319153
O   O5        1.0  0.69330  0.32240  0.98310  1.0000 -0.5386771978
O   O6        1.0  0.98310  0.69330  0.32240  1.0000 -0.5386771978
O   O7        1.0  0.32240  0.98310  0.69330  1.0000 -0.5386771978
O   O8        1.0  0.17760  0.01690  0.19330  1.0000 -0.5386771978
O   O9        1.0  0.48310  0.80670  0.67760  1.0000 -0.5386771978
O   O10       1.0  0.67760  0.48310  0.80670  1.0000 -0.5386771978
O   O11       1.0  0.51690  0.30670  0.82240  1.0000 -0.5386771978
O   O12       1.0  0.01690  0.19330  0.17760  1.0000 -0.5386771978
O   O13       1.0  0.82240  0.51690  0.30670  1.0000 -0.5386771978
O   O14       1.0  0.80670  0.67760  0.48310  1.0000 -0.5386771978
O   O15       1.0  0.19330  0.17760  0.01690  1.0000 -0.5386771978
O   O16       1.0  0.30670  0.82240  0.51690  1.0000 -0.5386771978
O   O17       1.0  0.65980  0.99320  0.96780  1.0000 -0.2319687874
O   O18       1.0  0.96780  0.65980  0.99320  1.0000 -0.2319687874
O   O19       1.0  0.99320  0.96780  0.65980  1.0000 -0.2319687874
O   O20       1.0  0.50680  0.03220  0.15980  1.0000 -0.2319687874
O   O21       1.0  0.46780  0.84020  0.00680  1.0000 -0.2319687874
O   O22       1.0  0.00680  0.46780  0.84020  1.0000 -0.2319687874
O   O23       1.0  0.53220  0.34020  0.49320  1.0000 -0.2319687874
O   O24       1.0  0.03220  0.15980  0.50680  1.0000 -0.2319687874
O   O25       1.0  0.49320  0.53220  0.34020  1.0000 -0.2319687874
O   O26       1.0  0.84020  0.00680  0.46780  1.0000 -0.2319687874
O   O27       1.0  0.15980  0.50680  0.03220  1.0000 -0.2319687874
O   O28       1.0  0.34020  0.49320  0.53220  1.0000 -0.2319687874
O   O29       1.0  0.58800  0.26030  0.96450  1.0000 -0.5175255756
O   O30       1.0  0.96450  0.58800  0.26030  1.0000 -0.5175255756
O   O31       1.0  0.26030  0.96450  0.58800  1.0000 -0.5175255756
O   O32       1.0  0.23970  0.03550  0.08800  1.0000 -0.5175255756
O   O33       1.0  0.46450  0.91200  0.73970  1.0000 -0.5175255756
O   O34       1.0  0.73970  0.46450  0.91200  1.0000 -0.5175255756
O   O35       1.0  0.53550  0.41200  0.76030  1.0000 -0.5175255756
O   O36       1.0  0.03550  0.08800  0.23970  1.0000 -0.5175255756
O   O37       1.0  0.76030  0.53550  0.41200  1.0000 -0.5175255756
O   O38       1.0  0.91200  0.73970  0.46450  1.0000 -0.5175255756
O   O39       1.0  0.08800  0.23970  0.03550  1.0000 -0.5175255756
O   O40       1.0  0.41200  0.76030  0.53550  1.0000 -0.5175255756
O   O41       1.0  0.92030  0.17570  0.03730  1.0000 -0.4162311327
O   O42       1.0  0.03730  0.92030  0.17570  1.0000 -0.4162311327
O   O43       1.0  0.17570  0.03730  0.92030  1.0000 -0.4162311327
O   O44       1.0  0.32430  0.96270  0.42030  1.0000 -0.4162311327
O   O45       1.0  0.53730  0.57970  0.82430  1.0000 -0.4162311327
O   O46       1.0  0.82430  0.53730  0.57970  1.0000 -0.4162311327
O   O47       1.0  0.46270  0.07970  0.67570  1.0000 -0.4162311327
O   O48       1.0  0.96270  0.42030  0.32430  1.0000 -0.4162311327
O   O49       1.0  0.67570  0.46270  0.07970  1.0000 -0.4162311327
O   O50       1.0  0.57970  0.82430  0.53730  1.0000 -0.4162311327
O   O51       1.0  0.42030  0.32430  0.96270  1.0000 -0.4162311327
O   O52       1.0  0.07970  0.67570  0.46270  1.0000 -0.4162311327
O   O53       1.0  0.91480  0.05960  0.05890  0.4100 -0.2618793842
O   O54       1.0  0.05890  0.91480  0.05960  0.4100 -0.2618793842
O   O55       1.0  0.05960  0.05890  0.91480  0.4100 -0.2618793842
O   O56       1.0  0.44040  0.94110  0.41480  0.4100 -0.2618793842
O   O57       1.0  0.55890  0.58520  0.94040  0.4100 -0.2618793842
O   O58       1.0  0.94040  0.55890  0.58520  0.4100 -0.2618793842
O   O59       1.0  0.44110  0.08520  0.55960  0.4100 -0.2618793842
O   O60       1.0  0.94110  0.41480  0.44040  0.4100 -0.2618793842
O   O61       1.0  0.55960  0.44110  0.08520  0.4100 -0.2618793842
O   O62       1.0  0.58520  0.94040  0.55890  0.4100 -0.2618793842
O   O63       1.0  0.41480  0.44040  0.94110  0.4100 -0.2618793842
O   O64       1.0  0.08520  0.55960  0.44110  0.4100 -0.2618793842
O   O65       1.0  0.92130  0.06430  0.98010  0.5900 -0.3011822349
O   O66       1.0  0.98010  0.92130  0.06430  0.5900 -0.3011822349
O   O67       1.0  0.06430  0.98010  0.92130  0.5900 -0.3011822349
O   O68       1.0  0.43570  0.01990  0.42130  0.5900 -0.3011822349
O   O69       1.0  0.48010  0.57870  0.93570  0.5900 -0.3011822349
O   O70       1.0  0.93570  0.48010  0.57870  0.5900 -0.3011822349
O   O71       1.0  0.51990  0.07870  0.56430  0.5900 -0.3011822349
O   O72       1.0  0.01990  0.42130  0.43570  0.5900 -0.3011822349
O   O73       1.0  0.56430  0.51990  0.07870  0.5900 -0.3011822349
O   O74       1.0  0.57870  0.93570  0.48010  0.5900 -0.3011822349
O   O75       1.0  0.42130  0.43570  0.01990  0.5900 -0.3011822349
O   O76       1.0  0.07870  0.56430  0.51990  0.5900 -0.3011822349
