# DDEC6 charges by PACMAN v1.1 (https://github.com/mtap-research/PACMAN-charge/)
data_jp302979a_si_002_ASR_pacman
_symmetry_space_group_name_H-M   'P 1'
_cell_length_a   20.25100000
_cell_length_b   20.25100000
_cell_length_c   20.25100000
_cell_angle_alpha   90.00000000
_cell_angle_beta   90.00000000
_cell_angle_gamma   90.00000000
_symmetry_Int_Tables_number   1
_chemical_formula_structural   Zn11H18(C27O26)2
_chemical_formula_sum   'Zn22 H36 C108 O104'
_cell_volume   8304.99587325
_cell_formula_units_Z   2
loop_
 _symmetry_equiv_pos_site_id
 _symmetry_equiv_pos_as_xyz
  1  'x, y, z'
loop_
 _atom_site_type_symbol
 _atom_site_label
 _atom_site_symmetry_multiplicity
 _atom_site_fract_x
 _atom_site_fract_y
 _atom_site_fract_z
 _atom_site_occupancy
 _atom_site_charge
Zn  Zn1  1  0.16237000  0.16237000  0.16237000  1.0 0.7243435145
Zn  Zn2  1  0.26359000  0.26359000  0.26359000  1.0 0.6571859579
Zn  Zn3  1  0.83763000  0.83763000  0.16237000  1.0 0.7252096693
Zn  Zn4  1  0.73641000  0.73641000  0.26359000  1.0 0.6571859579
Zn  Zn5  1  0.83763000  0.16237000  0.83763000  1.0 0.7243435145
Zn  Zn6  1  0.73641000  0.26359000  0.73641000  1.0 0.6571859579
Zn  Zn7  1  0.16237000  0.83763000  0.83763000  1.0 0.7243435145
Zn  Zn8  1  0.26359000  0.73641000  0.73641000  1.0 0.6571859579
Zn  Zn9  1  0.16237000  0.16237000  0.83763000  1.0 0.7243435145
Zn  Zn10  1  0.26359000  0.26359000  0.73641000  1.0 0.6571859579
Zn  Zn11  1  0.83763000  0.83763000  0.83763000  1.0 0.7252096693
Zn  Zn12  1  0.73641000  0.73641000  0.73641000  1.0 0.6571859579
Zn  Zn13  1  0.16237000  0.83763000  0.16237000  1.0 0.7243435145
Zn  Zn14  1  0.26359000  0.73641000  0.26359000  1.0 0.6571859579
Zn  Zn15  1  0.83763000  0.16237000  0.16237000  1.0 0.7243435145
Zn  Zn16  1  0.73641000  0.26359000  0.26359000  1.0 0.6571859579
Zn  Zn17  1  0.07310000  0.50000000  0.50000000  1.0 0.8185716431
Zn  Zn18  1  0.92690000  0.50000000  0.50000000  1.0 0.8185716431
Zn  Zn19  1  0.50000000  0.07310000  0.50000000  1.0 0.8185716431
Zn  Zn20  1  0.50000000  0.92690000  0.50000000  1.0 0.8185716431
Zn  Zn21  1  0.50000000  0.50000000  0.07310000  1.0 0.8185716431
Zn  Zn22  1  0.50000000  0.50000000  0.92690000  1.0 0.8185716431
H  H1  1  0.09850000  0.35620000  0.35620000  1.0 0.1169274683
H  H2  1  0.90150000  0.64380000  0.35620000  1.0 0.1169274683
H  H3  1  0.90150000  0.35620000  0.64380000  1.0 0.1169274683
H  H4  1  0.09850000  0.64380000  0.64380000  1.0 0.1169274683
H  H5  1  0.35620000  0.09850000  0.35620000  1.0 0.1169274683
H  H6  1  0.35620000  0.90150000  0.64380000  1.0 0.1169274683
H  H7  1  0.64380000  0.90150000  0.35620000  1.0 0.1169274683
H  H8  1  0.64380000  0.09850000  0.64380000  1.0 0.1169274683
H  H9  1  0.35620000  0.35620000  0.09850000  1.0 0.1169274683
H  H10  1  0.64380000  0.35620000  0.90150000  1.0 0.1169274683
H  H11  1  0.35620000  0.64380000  0.90150000  1.0 0.1169274683
H  H12  1  0.64380000  0.64380000  0.09850000  1.0 0.1169274683
H  H13  1  0.35620000  0.09850000  0.64380000  1.0 0.1169274683
H  H14  1  0.64380000  0.90150000  0.64380000  1.0 0.1169274683
H  H15  1  0.35620000  0.90150000  0.35620000  1.0 0.1169274683
H  H16  1  0.64380000  0.09850000  0.35620000  1.0 0.1169274683
H  H17  1  0.09850000  0.35620000  0.64380000  1.0 0.1169274683
H  H18  1  0.90150000  0.35620000  0.35620000  1.0 0.1169274683
H  H19  1  0.90150000  0.64380000  0.64380000  1.0 0.1169274683
H  H20  1  0.09850000  0.64380000  0.35620000  1.0 0.1169274683
H  H21  1  0.35620000  0.35620000  0.90150000  1.0 0.1169274683
H  H22  1  0.35620000  0.64380000  0.09850000  1.0 0.1169274683
H  H23  1  0.64380000  0.35620000  0.09850000  1.0 0.1169274683
H  H24  1  0.64380000  0.64380000  0.90150000  1.0 0.1169274683
H  H25  1  0.00000000  0.23300000  0.23300000  1.0 0.13723376
H  H26  1  0.00000000  0.76700000  0.23300000  1.0 0.13723376
H  H27  1  0.00000000  0.23300000  0.76700000  1.0 0.13723376
H  H28  1  0.00000000  0.76700000  0.76700000  1.0 0.13723376
H  H29  1  0.23300000  0.00000000  0.23300000  1.0 0.13723376
H  H30  1  0.23300000  0.00000000  0.76700000  1.0 0.13723376
H  H31  1  0.76700000  0.00000000  0.23300000  1.0 0.13723376
H  H32  1  0.76700000  0.00000000  0.76700000  1.0 0.13723376
H  H33  1  0.23300000  0.23300000  0.00000000  1.0 0.13723376
H  H34  1  0.76700000  0.23300000  0.00000000  1.0 0.13723376
H  H35  1  0.23300000  0.76700000  0.00000000  1.0 0.13723376
H  H36  1  0.76700000  0.76700000  0.00000000  1.0 0.13723376
C  C1  1  0.05830000  0.33910000  0.33910000  1.0 -0.1564695254
C  C2  1  0.06070000  0.29050000  0.29050000  1.0 -0.0640294399
C  C3  1  0.12580000  0.26530000  0.26530000  1.0 0.5484650096
C  C4  1  0.94170000  0.66090000  0.33910000  1.0 -0.1564695254
C  C5  1  0.93930000  0.70950000  0.29050000  1.0 -0.0640294399
C  C6  1  0.87420000  0.73470000  0.26530000  1.0 0.5484650096
C  C7  1  0.94170000  0.33910000  0.66090000  1.0 -0.1564695254
C  C8  1  0.93930000  0.29050000  0.70950000  1.0 -0.0640294399
C  C9  1  0.87420000  0.26530000  0.73470000  1.0 0.5484650096
C  C10  1  0.05830000  0.66090000  0.66090000  1.0 -0.1564695254
C  C11  1  0.06070000  0.70950000  0.70950000  1.0 -0.0640294399
C  C12  1  0.12580000  0.73470000  0.73470000  1.0 0.5484650096
C  C13  1  0.33910000  0.05830000  0.33910000  1.0 -0.1564695254
C  C14  1  0.29050000  0.06070000  0.29050000  1.0 -0.0640294399
C  C15  1  0.26530000  0.12580000  0.26530000  1.0 0.5484650096
C  C16  1  0.33910000  0.94170000  0.66090000  1.0 -0.1564695254
C  C17  1  0.29050000  0.93930000  0.70950000  1.0 -0.0640294399
C  C18  1  0.26530000  0.87420000  0.73470000  1.0 0.5484650096
C  C19  1  0.66090000  0.94170000  0.33910000  1.0 -0.1564695254
C  C20  1  0.70950000  0.93930000  0.29050000  1.0 -0.0640294399
C  C21  1  0.73470000  0.87420000  0.26530000  1.0 0.5484650096
C  C22  1  0.66090000  0.05830000  0.66090000  1.0 -0.1564695254
C  C23  1  0.70950000  0.06070000  0.70950000  1.0 -0.0640294399
C  C24  1  0.73470000  0.12580000  0.73470000  1.0 0.5484650096
C  C25  1  0.33910000  0.33910000  0.05830000  1.0 -0.1564695254
C  C26  1  0.29050000  0.29050000  0.06070000  1.0 -0.0640294399
C  C27  1  0.26530000  0.26530000  0.12580000  1.0 0.5484650096
C  C28  1  0.66090000  0.33910000  0.94170000  1.0 -0.1564695254
C  C29  1  0.70950000  0.29050000  0.93930000  1.0 -0.0640294399
C  C30  1  0.73470000  0.26530000  0.87420000  1.0 0.5484650096
C  C31  1  0.33910000  0.66090000  0.94170000  1.0 -0.1564695254
C  C32  1  0.29050000  0.70950000  0.93930000  1.0 -0.0640294399
C  C33  1  0.26530000  0.73470000  0.87420000  1.0 0.5484650096
C  C34  1  0.66090000  0.66090000  0.05830000  1.0 -0.1564695254
C  C35  1  0.70950000  0.70950000  0.06070000  1.0 -0.0640294399
C  C36  1  0.73470000  0.73470000  0.12580000  1.0 0.5484650096
C  C37  1  0.33910000  0.05830000  0.66090000  1.0 -0.1564695254
C  C38  1  0.29050000  0.06070000  0.70950000  1.0 -0.0640294399
C  C39  1  0.26530000  0.12580000  0.73470000  1.0 0.5484650096
C  C40  1  0.66090000  0.94170000  0.66090000  1.0 -0.1564695254
C  C41  1  0.70950000  0.93930000  0.70950000  1.0 -0.0640294399
C  C42  1  0.73470000  0.87420000  0.73470000  1.0 0.5484650096
C  C43  1  0.33910000  0.94170000  0.33910000  1.0 -0.1564695254
C  C44  1  0.29050000  0.93930000  0.29050000  1.0 -0.0650161941
C  C45  1  0.26530000  0.87420000  0.26530000  1.0 0.5484650096
C  C46  1  0.66090000  0.05830000  0.33910000  1.0 -0.1564695254
C  C47  1  0.70950000  0.06070000  0.29050000  1.0 -0.0640294399
C  C48  1  0.73470000  0.12580000  0.26530000  1.0 0.5484650096
C  C49  1  0.05830000  0.33910000  0.66090000  1.0 -0.1564695254
C  C50  1  0.06070000  0.29050000  0.70950000  1.0 -0.0640294399
C  C51  1  0.12580000  0.26530000  0.73470000  1.0 0.5484650096
C  C52  1  0.94170000  0.33910000  0.33910000  1.0 -0.1564695254
C  C53  1  0.93930000  0.29050000  0.29050000  1.0 -0.0640294399
C  C54  1  0.87420000  0.26530000  0.26530000  1.0 0.5484650096
C  C55  1  0.94170000  0.66090000  0.66090000  1.0 -0.1564695254
C  C56  1  0.93930000  0.70950000  0.70950000  1.0 -0.0640294399
C  C57  1  0.87420000  0.73470000  0.73470000  1.0 0.5484650096
C  C58  1  0.05830000  0.66090000  0.33910000  1.0 -0.1564695254
C  C59  1  0.06070000  0.70950000  0.29050000  1.0 -0.0640294399
C  C60  1  0.12580000  0.73470000  0.26530000  1.0 0.5484650096
C  C61  1  0.33910000  0.33910000  0.94170000  1.0 -0.1564695254
C  C62  1  0.29050000  0.29050000  0.93930000  1.0 -0.0640294399
C  C63  1  0.26530000  0.26530000  0.87420000  1.0 0.5484650096
C  C64  1  0.33910000  0.66090000  0.05830000  1.0 -0.1564695254
C  C65  1  0.29050000  0.70950000  0.06070000  1.0 -0.0640294399
C  C66  1  0.26530000  0.73470000  0.12580000  1.0 0.5484650096
C  C67  1  0.66090000  0.33910000  0.05830000  1.0 -0.1564695254
C  C68  1  0.70950000  0.29050000  0.06070000  1.0 -0.0640294399
C  C69  1  0.73470000  0.26530000  0.12580000  1.0 0.5484650096
C  C70  1  0.66090000  0.66090000  0.94170000  1.0 -0.1564695254
C  C71  1  0.70950000  0.70950000  0.93930000  1.0 -0.0640294399
C  C72  1  0.73470000  0.73470000  0.87420000  1.0 0.5484650096
C  C73  1  0.00000000  0.36300000  0.36300000  1.0 0.0246905732
C  C74  1  0.00000000  0.26610000  0.26610000  1.0 -0.0416990578
C  C75  1  0.00000000  0.42050000  0.42050000  1.0 0.5602745921
C  C76  1  0.00000000  0.63700000  0.36300000  1.0 0.0246905732
C  C77  1  0.00000000  0.73390000  0.26610000  1.0 -0.0416990578
C  C78  1  0.00000000  0.57950000  0.42050000  1.0 0.5602745921
C  C79  1  0.00000000  0.36300000  0.63700000  1.0 0.0246905732
C  C80  1  0.00000000  0.26610000  0.73390000  1.0 -0.0416990578
C  C81  1  0.00000000  0.42050000  0.57950000  1.0 0.5602745921
C  C82  1  0.00000000  0.63700000  0.63700000  1.0 0.0246905732
C  C83  1  0.00000000  0.73390000  0.73390000  1.0 -0.0416990578
C  C84  1  0.00000000  0.57950000  0.57950000  1.0 0.5602745921
C  C85  1  0.36300000  0.00000000  0.36300000  1.0 0.0246905732
C  C86  1  0.26610000  0.00000000  0.26610000  1.0 -0.0416990578
C  C87  1  0.42050000  0.00000000  0.42050000  1.0 0.5602745921
C  C88  1  0.36300000  0.00000000  0.63700000  1.0 0.0246905732
C  C89  1  0.26610000  0.00000000  0.73390000  1.0 -0.0416990578
C  C90  1  0.42050000  0.00000000  0.57950000  1.0 0.5602745921
C  C91  1  0.63700000  0.00000000  0.36300000  1.0 0.0246905732
C  C92  1  0.73390000  0.00000000  0.26610000  1.0 -0.0416990578
C  C93  1  0.57950000  0.00000000  0.42050000  1.0 0.5602745921
C  C94  1  0.63700000  0.00000000  0.63700000  1.0 0.0246905732
C  C95  1  0.73390000  0.00000000  0.73390000  1.0 -0.0416990578
C  C96  1  0.57950000  0.00000000  0.57950000  1.0 0.5602745921
C  C97  1  0.36300000  0.36300000  0.00000000  1.0 0.0246905732
C  C98  1  0.26610000  0.26610000  0.00000000  1.0 -0.0416990578
C  C99  1  0.42050000  0.42050000  0.00000000  1.0 0.5602745921
C  C100  1  0.63700000  0.36300000  0.00000000  1.0 0.0246905732
C  C101  1  0.73390000  0.26610000  0.00000000  1.0 -0.0416990578
C  C102  1  0.57950000  0.42050000  0.00000000  1.0 0.5602745921
C  C103  1  0.36300000  0.63700000  0.00000000  1.0 0.0246905732
C  C104  1  0.26610000  0.73390000  0.00000000  1.0 -0.0416990578
C  C105  1  0.42050000  0.57950000  0.00000000  1.0 0.5602745921
C  C106  1  0.63700000  0.63700000  0.00000000  1.0 0.0246905732
C  C107  1  0.73390000  0.73390000  0.00000000  1.0 -0.0416990578
C  C108  1  0.57950000  0.57950000  0.00000000  1.0 0.5602745921
O  O1  1  0.17950000  0.28290000  0.28290000  1.0 -0.3791977629
O  O2  1  0.05780000  0.42940000  0.42940000  1.0 -0.4970016258
O  O3  1  0.11880000  0.22350000  0.22350000  1.0 -0.4503652579
O  O4  1  0.82050000  0.71710000  0.28290000  1.0 -0.3791977629
O  O5  1  0.94220000  0.57060000  0.42940000  1.0 -0.4970016258
O  O6  1  0.88120000  0.77650000  0.22350000  1.0 -0.4503652579
O  O7  1  0.82050000  0.28290000  0.71710000  1.0 -0.3791977629
O  O8  1  0.94220000  0.42940000  0.57060000  1.0 -0.4970016258
O  O9  1  0.88120000  0.22350000  0.77650000  1.0 -0.4503652579
O  O10  1  0.17950000  0.71710000  0.71710000  1.0 -0.3791977629
O  O11  1  0.05780000  0.57060000  0.57060000  1.0 -0.4970016258
O  O12  1  0.11880000  0.77650000  0.77650000  1.0 -0.4503652579
O  O13  1  0.28290000  0.17950000  0.28290000  1.0 -0.3791977629
O  O14  1  0.42940000  0.05780000  0.42940000  1.0 -0.4970016258
O  O15  1  0.22350000  0.11880000  0.22350000  1.0 -0.4503652579
O  O16  1  0.28290000  0.82050000  0.71710000  1.0 -0.3791977629
O  O17  1  0.42940000  0.94220000  0.57060000  1.0 -0.4970016258
O  O18  1  0.22350000  0.88120000  0.77650000  1.0 -0.4503652579
O  O19  1  0.71710000  0.82050000  0.28290000  1.0 -0.3791977629
O  O20  1  0.57060000  0.94220000  0.42940000  1.0 -0.4970016258
O  O21  1  0.77650000  0.88120000  0.22350000  1.0 -0.4503652579
O  O22  1  0.71710000  0.17950000  0.71710000  1.0 -0.3791977629
O  O23  1  0.57060000  0.05780000  0.57060000  1.0 -0.4970016258
O  O24  1  0.77650000  0.11880000  0.77650000  1.0 -0.4503652579
O  O25  1  0.28290000  0.28290000  0.17950000  1.0 -0.3791977629
O  O26  1  0.42940000  0.42940000  0.05780000  1.0 -0.4970016258
O  O27  1  0.22350000  0.22350000  0.11880000  1.0 -0.4503652579
O  O28  1  0.71710000  0.28290000  0.82050000  1.0 -0.3791977629
O  O29  1  0.57060000  0.42940000  0.94220000  1.0 -0.4970016258
O  O30  1  0.77650000  0.22350000  0.88120000  1.0 -0.4503652579
O  O31  1  0.28290000  0.71710000  0.82050000  1.0 -0.3791977629
O  O32  1  0.42940000  0.57060000  0.94220000  1.0 -0.4970016258
O  O33  1  0.22350000  0.77650000  0.88120000  1.0 -0.4503652579
O  O34  1  0.71710000  0.71710000  0.17950000  1.0 -0.3791977629
O  O35  1  0.57060000  0.57060000  0.05780000  1.0 -0.4970016258
O  O36  1  0.77650000  0.77650000  0.11880000  1.0 -0.4503652579
O  O37  1  0.28290000  0.17950000  0.71710000  1.0 -0.3791977629
O  O38  1  0.42940000  0.05780000  0.57060000  1.0 -0.4970016258
O  O39  1  0.22350000  0.11880000  0.77650000  1.0 -0.4503652579
O  O40  1  0.71710000  0.82050000  0.71710000  1.0 -0.3791977629
O  O41  1  0.57060000  0.94220000  0.57060000  1.0 -0.4970016258
O  O42  1  0.77650000  0.88120000  0.77650000  1.0 -0.4503652579
O  O43  1  0.28290000  0.82050000  0.28290000  1.0 -0.3791977629
O  O44  1  0.42940000  0.94220000  0.42940000  1.0 -0.4970016258
O  O45  1  0.22350000  0.88120000  0.22350000  1.0 -0.4503652579
O  O46  1  0.71710000  0.17950000  0.28290000  1.0 -0.3791977629
O  O47  1  0.57060000  0.05780000  0.42940000  1.0 -0.4970016258
O  O48  1  0.77650000  0.11880000  0.22350000  1.0 -0.4503652579
O  O49  1  0.17950000  0.28290000  0.71710000  1.0 -0.3791977629
O  O50  1  0.05780000  0.42940000  0.57060000  1.0 -0.4970016258
O  O51  1  0.11880000  0.22350000  0.77650000  1.0 -0.4503652579
O  O52  1  0.82050000  0.28290000  0.28290000  1.0 -0.3791977629
O  O53  1  0.94220000  0.42940000  0.42940000  1.0 -0.4970016258
O  O54  1  0.88120000  0.22350000  0.22350000  1.0 -0.4503652579
O  O55  1  0.82050000  0.71710000  0.71710000  1.0 -0.3791977629
O  O56  1  0.94220000  0.57060000  0.57060000  1.0 -0.4970016258
O  O57  1  0.88120000  0.77650000  0.77650000  1.0 -0.4503652579
O  O58  1  0.17950000  0.71710000  0.28290000  1.0 -0.3791977629
O  O59  1  0.05780000  0.57060000  0.42940000  1.0 -0.4970016258
O  O60  1  0.11880000  0.77650000  0.22350000  1.0 -0.4503652579
O  O61  1  0.28290000  0.28290000  0.82050000  1.0 -0.3791977629
O  O62  1  0.42940000  0.42940000  0.94220000  1.0 -0.4970016258
O  O63  1  0.22350000  0.22350000  0.88120000  1.0 -0.4503652579
O  O64  1  0.28290000  0.71710000  0.17950000  1.0 -0.3791977629
O  O65  1  0.42940000  0.57060000  0.05780000  1.0 -0.4970016258
O  O66  1  0.22350000  0.77650000  0.11880000  1.0 -0.4503652579
O  O67  1  0.71710000  0.28290000  0.17950000  1.0 -0.3791977629
O  O68  1  0.57060000  0.42940000  0.05780000  1.0 -0.4970016258
O  O69  1  0.77650000  0.22350000  0.11880000  1.0 -0.4503652579
O  O70  1  0.71710000  0.71710000  0.82050000  1.0 -0.3791977629
O  O71  1  0.57060000  0.57060000  0.94220000  1.0 -0.4970016258
O  O72  1  0.77650000  0.77650000  0.88120000  1.0 -0.4503652579
O  O73  1  0.28400000  0.33800000  0.33800000  0.25 0.1266368781
O  O74  1  0.71600000  0.66200000  0.33800000  0.25 0.1266368781
O  O75  1  0.71600000  0.33800000  0.66200000  0.25 0.1266368781
O  O76  1  0.28400000  0.66200000  0.66200000  0.25 0.1266368781
O  O77  1  0.33800000  0.28400000  0.33800000  0.25 0.1266368781
O  O78  1  0.33800000  0.71600000  0.66200000  0.25 0.1266368781
O  O79  1  0.66200000  0.71600000  0.33800000  0.25 0.1266368781
O  O80  1  0.66200000  0.28400000  0.66200000  0.25 0.1266368781
O  O81  1  0.33800000  0.33800000  0.28400000  0.25 0.1266368781
O  O82  1  0.66200000  0.33800000  0.71600000  0.25 0.1266368781
O  O83  1  0.33800000  0.66200000  0.71600000  0.25 0.1266368781
O  O84  1  0.66200000  0.66200000  0.28400000  0.25 0.1266368781
O  O85  1  0.33800000  0.28400000  0.66200000  0.25 0.1266368781
O  O86  1  0.66200000  0.71600000  0.66200000  0.25 0.1266368781
O  O87  1  0.33800000  0.71600000  0.33800000  0.25 0.1266368781
O  O88  1  0.66200000  0.28400000  0.33800000  0.25 0.1266368781
O  O89  1  0.28400000  0.33800000  0.66200000  0.25 0.1266368781
O  O90  1  0.71600000  0.33800000  0.33800000  0.25 0.1266368781
O  O91  1  0.71600000  0.66200000  0.66200000  0.25 0.1266368781
O  O92  1  0.28400000  0.66200000  0.33800000  0.25 0.1266368781
O  O93  1  0.33800000  0.33800000  0.71600000  0.25 0.1266368781
O  O94  1  0.33800000  0.66200000  0.28400000  0.25 0.1266368781
O  O95  1  0.66200000  0.33800000  0.28400000  0.25 0.1266368781
O  O96  1  0.66200000  0.66200000  0.71600000  0.25 0.1266368781
O  O97  1  0.28190000  0.37700000  0.28190000  0.25 -0.1426370487
O  O98  1  0.08360000  0.20300000  0.08360000  0.25 -0.3884453005
O  O99  1  0.12400000  0.06200000  0.12400000  0.25 0.0890838769
O  O100  1  0.71810000  0.62300000  0.28190000  0.25 -0.1426370487
O  O101  1  0.91640000  0.79700000  0.08360000  0.25 -0.3884453005
O  O102  1  0.87600000  0.93800000  0.12400000  0.25 0.0890838769
O  O103  1  0.71810000  0.37700000  0.71810000  0.25 -0.1426370487
O  O104  1  0.91640000  0.20300000  0.91640000  0.25 -0.3884453005
O  O105  1  0.87600000  0.06200000  0.87600000  0.25 0.0890838769
O  O106  1  0.28190000  0.62300000  0.71810000  0.25 -0.1426370487
O  O107  1  0.08360000  0.79700000  0.91640000  0.25 -0.3884453005
O  O108  1  0.12400000  0.93800000  0.87600000  0.25 0.0890838769
O  O109  1  0.28190000  0.28190000  0.37700000  0.25 -0.1426370487
O  O110  1  0.08360000  0.08360000  0.20300000  0.25 -0.3884453005
O  O111  1  0.12400000  0.12400000  0.06200000  0.25 0.0890838769
O  O112  1  0.28190000  0.71810000  0.62300000  0.25 -0.1426370487
O  O113  1  0.08360000  0.91640000  0.79700000  0.25 -0.3884453005
O  O114  1  0.12400000  0.87600000  0.93800000  0.25 0.0890838769
O  O115  1  0.71810000  0.71810000  0.37700000  0.25 -0.1426370487
O  O116  1  0.91640000  0.91640000  0.20300000  0.25 -0.3884453005
O  O117  1  0.87600000  0.87600000  0.06200000  0.25 0.0890838769
O  O118  1  0.71810000  0.28190000  0.62300000  0.25 -0.1426370487
O  O119  1  0.91640000  0.08360000  0.79700000  0.25 -0.3884453005
O  O120  1  0.87600000  0.12400000  0.93800000  0.25 0.0890838769
O  O121  1  0.37700000  0.28190000  0.28190000  0.25 -0.1426370487
O  O122  1  0.20300000  0.08360000  0.08360000  0.25 -0.3884453005
O  O123  1  0.06200000  0.12400000  0.12400000  0.25 0.0890838769
O  O124  1  0.62300000  0.28190000  0.71810000  0.25 -0.1426370487
O  O125  1  0.79700000  0.08360000  0.91640000  0.25 -0.3884453005
O  O126  1  0.93800000  0.12400000  0.87600000  0.25 0.0890838769
O  O127  1  0.37700000  0.71810000  0.71810000  0.25 -0.1426370487
O  O128  1  0.20300000  0.91640000  0.91640000  0.25 -0.3884453005
O  O129  1  0.06200000  0.87600000  0.87600000  0.25 0.0890838769
O  O130  1  0.62300000  0.71810000  0.28190000  0.25 -0.1426370487
O  O131  1  0.79700000  0.91640000  0.08360000  0.25 -0.3884453005
O  O132  1  0.93800000  0.87600000  0.12400000  0.25 0.0890838769
O  O133  1  0.37700000  0.28190000  0.71810000  0.25 -0.1426370487
O  O134  1  0.20300000  0.08360000  0.91640000  0.25 -0.3884453005
O  O135  1  0.06200000  0.12400000  0.87600000  0.25 0.0890838769
O  O136  1  0.62300000  0.71810000  0.71810000  0.25 -0.1426370487
O  O137  1  0.79700000  0.91640000  0.91640000  0.25 -0.3884453005
O  O138  1  0.93800000  0.87600000  0.87600000  0.25 0.0890838769
O  O139  1  0.37700000  0.71810000  0.28190000  0.25 -0.1426370487
O  O140  1  0.20300000  0.91640000  0.08360000  0.25 -0.3884453005
O  O141  1  0.06200000  0.87600000  0.12400000  0.25 0.0890838769
O  O142  1  0.62300000  0.28190000  0.28190000  0.25 -0.1426370487
O  O143  1  0.79700000  0.08360000  0.08360000  0.25 -0.3884453005
O  O144  1  0.93800000  0.12400000  0.12400000  0.25 0.0890838769
O  O145  1  0.28190000  0.28190000  0.62300000  0.25 -0.1426370487
O  O146  1  0.08360000  0.08360000  0.79700000  0.25 -0.3884453005
O  O147  1  0.12400000  0.12400000  0.93800000  0.25 0.0890838769
O  O148  1  0.71810000  0.28190000  0.37700000  0.25 -0.1426370487
O  O149  1  0.91640000  0.08360000  0.20300000  0.25 -0.3884453005
O  O150  1  0.87600000  0.12400000  0.06200000  0.25 0.0890838769
O  O151  1  0.71810000  0.71810000  0.62300000  0.25 -0.1426370487
O  O152  1  0.91640000  0.91640000  0.79700000  0.25 -0.3884453005
O  O153  1  0.87600000  0.87600000  0.93800000  0.25 0.0890838769
O  O154  1  0.28190000  0.71810000  0.37700000  0.25 -0.1426370487
O  O155  1  0.08360000  0.91640000  0.20300000  0.25 -0.3884453005
O  O156  1  0.12400000  0.87600000  0.06200000  0.25 0.0890838769
O  O157  1  0.28190000  0.37700000  0.71810000  0.25 -0.1426370487
O  O158  1  0.08360000  0.20300000  0.91640000  0.25 -0.3884453005
O  O159  1  0.12400000  0.06200000  0.87600000  0.25 0.0890838769
O  O160  1  0.28190000  0.62300000  0.28190000  0.25 -0.1426370487
O  O161  1  0.08360000  0.79700000  0.08360000  0.25 -0.3884453005
O  O162  1  0.12400000  0.93800000  0.12400000  0.25 0.0890838769
O  O163  1  0.71810000  0.37700000  0.28190000  0.25 -0.1426370487
O  O164  1  0.91640000  0.20300000  0.08360000  0.25 -0.3884453005
O  O165  1  0.87600000  0.06200000  0.12400000  0.25 0.0890838769
O  O166  1  0.71810000  0.62300000  0.71810000  0.25 -0.1426370487
O  O167  1  0.91640000  0.79700000  0.91640000  0.25 -0.3884453005
O  O168  1  0.87600000  0.93800000  0.87600000  0.25 0.0890838769
O  O169  1  0.32400000  0.32400000  0.32400000  0.5 0.2632224869
O  O170  1  0.10300000  0.10300000  0.10300000  0.5 0.3115744974
O  O171  1  0.67600000  0.67600000  0.32400000  0.5 0.2632224869
O  O172  1  0.89700000  0.89700000  0.10300000  0.5 0.3115744974
O  O173  1  0.67600000  0.32400000  0.67600000  0.5 0.2632224869
O  O174  1  0.89700000  0.10300000  0.89700000  0.5 0.3115744974
O  O175  1  0.32400000  0.67600000  0.67600000  0.5 0.2632224869
O  O176  1  0.10300000  0.89700000  0.89700000  0.5 0.3115744974
O  O177  1  0.32400000  0.32400000  0.67600000  0.5 0.2632224869
O  O178  1  0.10300000  0.10300000  0.89700000  0.5 0.3115744974
O  O179  1  0.67600000  0.67600000  0.67600000  0.5 0.2632224869
O  O180  1  0.89700000  0.89700000  0.89700000  0.5 0.3115744974
O  O181  1  0.32400000  0.67600000  0.32400000  0.5 0.2632224869
O  O182  1  0.10300000  0.89700000  0.10300000  0.5 0.3115744974
O  O183  1  0.67600000  0.32400000  0.32400000  0.5 0.2632224869
O  O184  1  0.89700000  0.10300000  0.10300000  0.5 0.3115744974
