# DDEC6 charges by PACMAN v1.1 (https://github.com/mtap-research/PACMAN-charge/)
data_2018[Zn][vtx]3[ASR]1
_chemical_formula_sum              "Zn8 H96 C146 N8 O40"
_cell_length_a       19.4614
_cell_length_b       19.4614
_cell_length_c       9.5493
_cell_angle_alpha    90
_cell_angle_beta     90
_cell_angle_gamma    90

_symmetry_space_group_name_H-M    "P 1"
_symmetry_Int_Tables_number       1

loop_
  _symmetry_equiv_pos_as_xyz
  'x, y, z'

loop_
  _atom_site_type_symbol
  _atom_site_label
  _atom_site_symmetry_multiplicity
  _atom_site_fract_x
  _atom_site_fract_y
  _atom_site_fract_z
  _atom_site_occupancy
  _atom_site_charge
Zn  Zn1       1.0  0.21382  0.21835  0.87004  1.0000 0.8210592564
Zn  Zn2       1.0  0.78618  0.78165  0.87004  1.0000 0.8210592564
Zn  Zn3       1.0  0.71835  0.28618  0.37004  1.0000 0.8210592564
Zn  Zn4       1.0  0.28165  0.71382  0.37004  1.0000 0.8210592564
Zn  Zn5       1.0  0.28618  0.28165  0.62996  1.0000 0.8210592564
Zn  Zn6       1.0  0.71382  0.71835  0.62996  1.0000 0.8210592564
Zn  Zn7       1.0  0.78165  0.21382  0.12996  1.0000 0.8210592564
Zn  Zn8       1.0  0.21835  0.78618  0.12996  1.0000 0.8210592564
H   H1        1.0  0.12130  0.23670  0.12190  1.0000 0.1089014058
H   H2        1.0  0.06440  0.17160  0.28820  1.0000 0.1362219523
H   H3        1.0  0.04670  0.09570  0.46810  1.0000 0.0988601898
H   H4        1.0  0.98360  0.08240  0.36280  1.0000 0.1089014058
H   H5        1.0  0.13990  0.00100  0.09670  1.0000 0.1488913331
H   H6        1.0  0.19360  0.07100  0.93650  1.0000 0.1089014058
H   H7        1.0  0.47650  0.28300  0.80500  1.0000 0.118654868
H   H8        1.0  0.58760  0.28030  0.89510  1.0000 0.118654868
H   H9        1.0  0.34630  0.14840  0.11360  1.0000 0.118654868
H   H10       1.0  0.37110  0.09460  0.32500  1.0000 0.1089014058
H   H11       1.0  0.48030  0.10390  0.42700  1.0000 0.118654868
H   H12       1.0  0.56860  0.15730  0.30730  1.0000 0.118654868
H   H13       1.0  0.87870  0.76330  0.12190  1.0000 0.1089014058
H   H14       1.0  0.93560  0.82840  0.28820  1.0000 0.1362219523
H   H15       1.0  0.95330  0.90430  0.46810  1.0000 0.0988601898
H   H16       1.0  0.01640  0.91760  0.36280  1.0000 0.1089014058
H   H17       1.0  0.86010  0.99900  0.09670  1.0000 0.1488913331
H   H18       1.0  0.80640  0.92900  0.93650  1.0000 0.1089014058
H   H19       1.0  0.52350  0.71700  0.80500  1.0000 0.118654868
H   H20       1.0  0.41240  0.71970  0.89510  1.0000 0.118654868
H   H21       1.0  0.65370  0.85160  0.11360  1.0000 0.118654868
H   H22       1.0  0.62890  0.90540  0.32500  1.0000 0.1089014058
H   H23       1.0  0.51970  0.89610  0.42700  1.0000 0.118654868
H   H24       1.0  0.43140  0.84270  0.30730  1.0000 0.118654868
H   H25       1.0  0.73670  0.37870  0.62190  1.0000 0.1089014058
H   H26       1.0  0.67160  0.43560  0.78820  1.0000 0.1362219523
H   H27       1.0  0.59570  0.45330  0.96810  1.0000 0.0988601898
H   H28       1.0  0.58240  0.51640  0.86280  1.0000 0.1089014058
H   H29       1.0  0.50100  0.36010  0.59670  1.0000 0.1488913331
H   H30       1.0  0.57100  0.30640  0.43650  1.0000 0.1089014058
H   H31       1.0  0.78300  0.02350  0.30500  1.0000 0.118654868
H   H32       1.0  0.78030  0.91240  0.39510  1.0000 0.118654868
H   H33       1.0  0.64840  0.15370  0.61360  1.0000 0.118654868
H   H34       1.0  0.59460  0.12890  0.82500  1.0000 0.1089014058
H   H35       1.0  0.60390  0.01970  0.92700  1.0000 0.118654868
H   H36       1.0  0.65730  0.93140  0.80730  1.0000 0.118654868
H   H37       1.0  0.26330  0.62130  0.62190  1.0000 0.1089014058
H   H38       1.0  0.32840  0.56440  0.78820  1.0000 0.1362219523
H   H39       1.0  0.40430  0.54670  0.96810  1.0000 0.0988601898
H   H40       1.0  0.41760  0.48360  0.86280  1.0000 0.1089014058
H   H41       1.0  0.49900  0.63990  0.59670  1.0000 0.1488913331
H   H42       1.0  0.42900  0.69360  0.43650  1.0000 0.1089014058
H   H43       1.0  0.21700  0.97650  0.30500  1.0000 0.118654868
H   H44       1.0  0.21970  0.08760  0.39510  1.0000 0.118654868
H   H45       1.0  0.35160  0.84630  0.61360  1.0000 0.118654868
H   H46       1.0  0.40540  0.87110  0.82500  1.0000 0.1089014058
H   H47       1.0  0.39610  0.98030  0.92700  1.0000 0.118654868
H   H48       1.0  0.34270  0.06860  0.80730  1.0000 0.118654868
H   H49       1.0  0.37870  0.26330  0.37810  1.0000 0.1089014058
H   H50       1.0  0.43560  0.32840  0.21180  1.0000 0.1362219523
H   H51       1.0  0.45330  0.40430  0.03190  1.0000 0.0988601898
H   H52       1.0  0.51640  0.41760  0.13720  1.0000 0.1089014058
H   H53       1.0  0.36010  0.49900  0.40330  1.0000 0.1488913331
H   H54       1.0  0.30640  0.42900  0.56350  1.0000 0.1089014058
H   H55       1.0  0.02350  0.21700  0.69500  1.0000 0.118654868
H   H56       1.0  0.91240  0.21970  0.60490  1.0000 0.118654868
H   H57       1.0  0.15370  0.35160  0.38640  1.0000 0.118654868
H   H58       1.0  0.12890  0.40540  0.17500  1.0000 0.1089014058
H   H59       1.0  0.01970  0.39610  0.07300  1.0000 0.118654868
H   H60       1.0  0.93140  0.34270  0.19270  1.0000 0.118654868
H   H61       1.0  0.62130  0.73670  0.37810  1.0000 0.1089014058
H   H62       1.0  0.56440  0.67160  0.21180  1.0000 0.1362219523
H   H63       1.0  0.54670  0.59570  0.03190  1.0000 0.0988601898
H   H64       1.0  0.48360  0.58240  0.13720  1.0000 0.1089014058
H   H65       1.0  0.63990  0.50100  0.40330  1.0000 0.1488913331
H   H66       1.0  0.69360  0.57100  0.56350  1.0000 0.1089014058
H   H67       1.0  0.97650  0.78300  0.69500  1.0000 0.118654868
H   H68       1.0  0.08760  0.78030  0.60490  1.0000 0.118654868
H   H69       1.0  0.84630  0.64840  0.38640  1.0000 0.118654868
H   H70       1.0  0.87110  0.59460  0.17500  1.0000 0.1089014058
H   H71       1.0  0.98030  0.60390  0.07300  1.0000 0.118654868
H   H72       1.0  0.06860  0.65730  0.19270  1.0000 0.118654868
H   H73       1.0  0.76330  0.12130  0.87810  1.0000 0.1089014058
H   H74       1.0  0.82840  0.06440  0.71180  1.0000 0.1362219523
H   H75       1.0  0.90430  0.04670  0.53190  1.0000 0.0988601898
H   H76       1.0  0.91760  0.98360  0.63720  1.0000 0.1089014058
H   H77       1.0  0.99900  0.13990  0.90330  1.0000 0.1488913331
H   H78       1.0  0.92900  0.19360  0.06350  1.0000 0.1089014058
H   H79       1.0  0.71700  0.47650  0.19500  1.0000 0.118654868
H   H80       1.0  0.71970  0.58760  0.10490  1.0000 0.118654868
H   H81       1.0  0.85160  0.34630  0.88640  1.0000 0.118654868
H   H82       1.0  0.90540  0.37110  0.67500  1.0000 0.1089014058
H   H83       1.0  0.89610  0.48030  0.57300  1.0000 0.118654868
H   H84       1.0  0.84270  0.56860  0.69270  1.0000 0.118654868
H   H85       1.0  0.23670  0.87870  0.87810  1.0000 0.1089014058
H   H86       1.0  0.17160  0.93560  0.71180  1.0000 0.1362219523
H   H87       1.0  0.09570  0.95330  0.53190  1.0000 0.0988601898
H   H88       1.0  0.08240  0.01640  0.63720  1.0000 0.1089014058
H   H89       1.0  0.00100  0.86010  0.90330  1.0000 0.1488913331
H   H90       1.0  0.07100  0.80640  0.06350  1.0000 0.1089014058
H   H91       1.0  0.28300  0.52350  0.19500  1.0000 0.118654868
H   H92       1.0  0.28030  0.41240  0.10490  1.0000 0.118654868
H   H93       1.0  0.14840  0.65370  0.88640  1.0000 0.118654868
H   H94       1.0  0.09460  0.62890  0.67500  1.0000 0.1089014058
H   H95       1.0  0.10390  0.51970  0.57300  1.0000 0.118654868
H   H96       1.0  0.15730  0.43140  0.69270  1.0000 0.118654868
C   C1        1.0  0.12500  0.18800  0.11770  1.0000 0.0988601898
C   C2        1.0  0.09130  0.15000  0.21790  1.0000 -0.2894785632
C   C3        1.0  0.09770  0.07880  0.21290  1.0000 0.2819421138
C   C4        1.0  0.02360  0.06070  0.40940  1.0000 -0.0921490019
C   C5        1.0  0.13590  0.04950  0.10440  1.0000 -0.2677655448
C   C6        1.0  0.16740  0.09140  0.00940  1.0000 0.0793150659
C   C7        1.0  0.36260  0.23120  0.88180  1.0000 0.5724626552
C   C8        1.0  0.43210  0.22450  0.94960  1.0000 -0.0671120774
C   C9        1.0  0.48490  0.25800  0.88870  1.0000 -0.1192329316
C   C10       1.0  0.55160  0.25750  0.94360  1.0000 -0.1347414334
C   C11       1.0  0.56490  0.22470  0.06570  1.0000 -0.0547267463
C   C12       1.0  0.23090  0.36430  0.87330  1.0000 0.5724626552
C   C13       1.0  0.51110  0.18900  0.13480  1.0000 0.0411732896
C   C14       1.0  0.44370  0.18760  0.07670  1.0000 0.0539700646
C   C15       1.0  0.39140  0.15110  0.15120  1.0000 -0.1562900473
C   C16       1.0  0.40610  0.11950  0.27790  1.0000 -0.0921490019
C   C17       1.0  0.47190  0.12370  0.33770  1.0000 -0.0953486491
C   C18       1.0  0.52380  0.15620  0.26790  1.0000 -0.1454579313
C   C19       1.0  0.87500  0.81200  0.11770  1.0000 0.0988601898
C   C20       1.0  0.90870  0.85000  0.21790  1.0000 -0.2894785632
C   C21       1.0  0.90230  0.92120  0.21290  1.0000 0.2819421138
C   C22       1.0  0.97640  0.93930  0.40940  1.0000 -0.0921490019
C   C23       1.0  0.86410  0.95050  0.10440  1.0000 -0.2677655448
C   C24       1.0  0.83260  0.90860  0.00940  1.0000 0.0793150659
C   C25       1.0  0.63740  0.76880  0.88180  1.0000 0.5724626552
C   C26       1.0  0.56790  0.77550  0.94960  1.0000 -0.0671120774
C   C27       1.0  0.51510  0.74200  0.88870  1.0000 -0.1192329316
C   C28       1.0  0.44840  0.74250  0.94360  1.0000 -0.1369112014
C   C29       1.0  0.43510  0.77530  0.06570  1.0000 -0.0547267463
C   C30       1.0  0.76910  0.63570  0.87330  1.0000 0.5724626552
C   C31       1.0  0.48890  0.81100  0.13480  1.0000 0.0411732896
C   C32       1.0  0.55630  0.81240  0.07670  1.0000 0.0539700646
C   C33       1.0  0.60860  0.84890  0.15120  1.0000 -0.1562900473
C   C34       1.0  0.59390  0.88050  0.27790  1.0000 -0.0921490019
C   C35       1.0  0.52810  0.87630  0.33770  1.0000 -0.0953486491
C   C36       1.0  0.47620  0.84380  0.26790  1.0000 -0.1454579313
C   C37       1.0  0.68800  0.37500  0.61770  1.0000 0.0988601898
C   C38       1.0  0.65000  0.40870  0.71790  1.0000 -0.2894785632
C   C39       1.0  0.57880  0.40230  0.71290  1.0000 0.2819421138
C   C40       1.0  0.56070  0.47640  0.90940  1.0000 -0.0921490019
C   C41       1.0  0.54950  0.36410  0.60440  1.0000 -0.2677655448
C   C42       1.0  0.59140  0.33260  0.50940  1.0000 0.0793150659
C   C43       1.0  0.73120  0.13740  0.38180  1.0000 0.5724626552
C   C44       1.0  0.72450  0.06790  0.44960  1.0000 -0.0671120774
C   C45       1.0  0.75800  0.01510  0.38870  1.0000 -0.1192329316
C   C46       1.0  0.75750  0.94840  0.44360  1.0000 -0.1369112014
C   C47       1.0  0.72470  0.93510  0.56570  1.0000 -0.0547267463
C   C48       1.0  0.86430  0.26910  0.37330  1.0000 0.5724626552
C   C49       1.0  0.68900  0.98890  0.63480  1.0000 0.0411732896
C   C50       1.0  0.68760  0.05630  0.57670  1.0000 0.0539700646
C   C51       1.0  0.65110  0.10860  0.65120  1.0000 -0.1562900473
C   C52       1.0  0.61950  0.09390  0.77790  1.0000 -0.0921490019
C   C53       1.0  0.62370  0.02810  0.83770  1.0000 -0.0953486491
C   C54       1.0  0.65620  0.97620  0.76790  1.0000 -0.1454579313
C   C55       1.0  0.31200  0.62500  0.61770  1.0000 0.0988601898
C   C56       1.0  0.35000  0.59130  0.71790  1.0000 -0.2894785632
C   C57       1.0  0.42120  0.59770  0.71290  1.0000 0.2819421138
C   C58       1.0  0.43930  0.52360  0.90940  1.0000 -0.0921490019
C   C59       1.0  0.45050  0.63590  0.60440  1.0000 -0.2677655448
C   C60       1.0  0.40860  0.66740  0.50940  1.0000 0.0793150659
C   C61       1.0  0.26880  0.86260  0.38180  1.0000 0.5724626552
C   C62       1.0  0.27550  0.93210  0.44960  1.0000 -0.0671120774
C   C63       1.0  0.24200  0.98490  0.38870  1.0000 -0.1192329316
C   C64       1.0  0.24250  0.05160  0.44360  1.0000 -0.1347414334
C   C65       1.0  0.27530  0.06490  0.56570  1.0000 -0.0547267463
C   C66       1.0  0.13570  0.73090  0.37330  1.0000 0.5724626552
C   C67       1.0  0.31100  0.01110  0.63480  1.0000 0.0411732896
C   C68       1.0  0.31240  0.94370  0.57670  1.0000 0.0539700646
C   C69       1.0  0.34890  0.89140  0.65120  1.0000 -0.1562900473
C   C70       1.0  0.38050  0.90610  0.77790  1.0000 -0.0921490019
C   C71       1.0  0.37630  0.97190  0.83770  1.0000 -0.0953486491
C   C72       1.0  0.34380  0.02380  0.76790  1.0000 -0.1369112014
C   C73       1.0  0.37500  0.31200  0.38230  1.0000 0.0988601898
C   C74       1.0  0.40870  0.35000  0.28210  1.0000 -0.2894785632
C   C75       1.0  0.40230  0.42120  0.28710  1.0000 0.2819421138
C   C76       1.0  0.47640  0.43930  0.09060  1.0000 -0.0921490019
C   C77       1.0  0.36410  0.45050  0.39560  1.0000 -0.2677655448
C   C78       1.0  0.33260  0.40860  0.49060  1.0000 0.0793150659
C   C79       1.0  0.13740  0.26880  0.61820  1.0000 0.5724626552
C   C80       1.0  0.06790  0.27550  0.55040  1.0000 -0.0671120774
C   C81       1.0  0.01510  0.24200  0.61130  1.0000 -0.1192329316
C   C82       1.0  0.94840  0.24250  0.55640  1.0000 -0.1347414334
C   C83       1.0  0.93510  0.27530  0.43430  1.0000 -0.0547267463
C   C84       1.0  0.26910  0.13570  0.62670  1.0000 0.5724626552
C   C85       1.0  0.98890  0.31100  0.36520  1.0000 0.0411732896
C   C86       1.0  0.05630  0.31240  0.42330  1.0000 0.0539700646
C   C87       1.0  0.10860  0.34890  0.34880  1.0000 -0.1562900473
C   C88       1.0  0.09390  0.38050  0.22210  1.0000 -0.0921490019
C   C89       1.0  0.02810  0.37630  0.16230  1.0000 -0.0953486491
C   C90       1.0  0.97620  0.34380  0.23210  1.0000 -0.1454579313
C   C91       1.0  0.62500  0.68800  0.38230  1.0000 0.0988601898
C   C92       1.0  0.59130  0.65000  0.28210  1.0000 -0.2894785632
C   C93       1.0  0.59770  0.57880  0.28710  1.0000 0.2819421138
C   C94       1.0  0.52360  0.56070  0.09060  1.0000 -0.0921490019
C   C95       1.0  0.63590  0.54950  0.39560  1.0000 -0.2677655448
C   C96       1.0  0.66740  0.59140  0.49060  1.0000 0.0793150659
C   C97       1.0  0.86260  0.73120  0.61820  1.0000 0.5724626552
C   C98       1.0  0.93210  0.72450  0.55040  1.0000 -0.0671120774
C   C99       1.0  0.98490  0.75800  0.61130  1.0000 -0.1192329316
C   C100      1.0  0.05160  0.75750  0.55640  1.0000 -0.1369112014
C   C101      1.0  0.06490  0.72470  0.43430  1.0000 -0.0547267463
C   C102      1.0  0.73090  0.86430  0.62670  1.0000 0.5724626552
C   C103      1.0  0.01110  0.68900  0.36520  1.0000 0.0411732896
C   C104      1.0  0.94370  0.68760  0.42330  1.0000 0.0539700646
C   C105      1.0  0.89140  0.65110  0.34880  1.0000 -0.1562900473
C   C106      1.0  0.90610  0.61950  0.22210  1.0000 -0.0921490019
C   C107      1.0  0.97190  0.62370  0.16230  1.0000 -0.0953486491
C   C108      1.0  0.02380  0.65620  0.23210  1.0000 -0.1454579313
C   C109      1.0  0.81200  0.12500  0.88230  1.0000 0.0988601898
C   C110      1.0  0.85000  0.09130  0.78210  1.0000 -0.2894785632
C   C111      1.0  0.92120  0.09770  0.78710  1.0000 0.2819421138
C   C112      1.0  0.93930  0.02360  0.59060  1.0000 -0.0921490019
C   C113      1.0  0.95050  0.13590  0.89560  1.0000 -0.2677655448
C   C114      1.0  0.90860  0.16740  0.99060  1.0000 0.0793150659
C   C115      1.0  0.76880  0.36260  0.11820  1.0000 0.5724626552
C   C116      1.0  0.77550  0.43210  0.05040  1.0000 -0.0671120774
C   C117      1.0  0.74200  0.48490  0.11130  1.0000 -0.1192329316
C   C118      1.0  0.74250  0.55160  0.05640  1.0000 -0.1369112014
C   C119      1.0  0.77530  0.56490  0.93430  1.0000 -0.0547267463
C   C120      1.0  0.63570  0.23090  0.12670  1.0000 0.5724626552
C   C121      1.0  0.81100  0.51110  0.86520  1.0000 0.0411732896
C   C122      1.0  0.81240  0.44370  0.92330  1.0000 0.0539700646
C   C123      1.0  0.84890  0.39140  0.84880  1.0000 -0.1562900473
C   C124      1.0  0.88050  0.40610  0.72210  1.0000 -0.0921490019
C   C125      1.0  0.87630  0.47190  0.66230  1.0000 -0.0953486491
C   C126      1.0  0.84380  0.52380  0.73210  1.0000 -0.1454579313
C   C127      1.0  0.18800  0.87500  0.88230  1.0000 0.0988601898
C   C128      1.0  0.15000  0.90870  0.78210  1.0000 -0.2894785632
C   C129      1.0  0.07880  0.90230  0.78710  1.0000 0.2819421138
C   C130      1.0  0.06070  0.97640  0.59060  1.0000 -0.0921490019
C   C131      1.0  0.04950  0.86410  0.89560  1.0000 -0.2677655448
C   C132      1.0  0.09140  0.83260  0.99060  1.0000 0.0793150659
C   C133      1.0  0.23120  0.63740  0.11820  1.0000 0.5724626552
C   C134      1.0  0.22450  0.56790  0.05040  1.0000 -0.0671120774
C   C135      1.0  0.25800  0.51510  0.11130  1.0000 -0.1192329316
C   C136      1.0  0.25750  0.44840  0.05640  1.0000 -0.1369112014
C   C137      1.0  0.22470  0.43510  0.93430  1.0000 -0.0547267463
C   C138      1.0  0.36430  0.76910  0.12670  1.0000 0.5724626552
C   C139      1.0  0.18900  0.48890  0.86520  1.0000 0.0411732896
C   C140      1.0  0.18760  0.55630  0.92330  1.0000 0.0539700646
C   C141      1.0  0.15110  0.60860  0.84880  1.0000 -0.1562900473
C   C142      1.0  0.11950  0.59390  0.72210  1.0000 -0.0921490019
C   C143      1.0  0.12370  0.52810  0.66230  1.0000 -0.0953486491
C   C144      1.0  0.15620  0.47620  0.73210  1.0000 -0.1454579313
C   C145      1.0  0.00000  0.00000  0.50000  1.0000 0.0988601898
C   C146      1.0  0.50000  0.50000  0.00000  1.0000 0.0988601898
N   N1        1.0  0.16290  0.16070  0.01470  1.0000 -0.2415334065
N   N2        1.0  0.83710  0.83930  0.01470  1.0000 -0.2415334065
N   N3        1.0  0.66070  0.33710  0.51470  1.0000 -0.2415334065
N   N4        1.0  0.33930  0.66290  0.51470  1.0000 -0.2415334065
N   N5        1.0  0.33710  0.33930  0.48530  1.0000 -0.2415334065
N   N6        1.0  0.66290  0.66070  0.48530  1.0000 -0.2415334065
N   N7        1.0  0.83930  0.16290  0.98530  1.0000 -0.2415334065
N   N8        1.0  0.16070  0.83710  0.98530  1.0000 -0.2415334065
O   O1        1.0  0.07042  0.03405  0.30700  1.0000 -0.1739504733
O   O2        1.0  0.31100  0.21240  0.94150  1.0000 -0.4842598666
O   O3        1.0  0.13750  0.24180  0.73560  1.0000 -0.5149422516
O   O4        1.0  0.23900  0.13970  0.74130  1.0000 -0.5356027116
O   O5        1.0  0.20860  0.31577  0.94050  1.0000 -0.4936855663
O   O6        1.0  0.92958  0.96595  0.30700  1.0000 -0.1739504733
O   O7        1.0  0.68900  0.78760  0.94150  1.0000 -0.4842598666
O   O8        1.0  0.86250  0.75820  0.73560  1.0000 -0.5151418675
O   O9        1.0  0.76100  0.86030  0.74130  1.0000 -0.5356027116
O   O10       1.0  0.79140  0.68423  0.94050  1.0000 -0.4936855663
O   O11       1.0  0.53405  0.42958  0.80700  1.0000 -0.1739504733
O   O12       1.0  0.71240  0.18900  0.44150  1.0000 -0.4842598666
O   O13       1.0  0.74180  0.36250  0.23560  1.0000 -0.5149422516
O   O14       1.0  0.63970  0.26100  0.24130  1.0000 -0.5356027116
O   O15       1.0  0.81577  0.29140  0.44050  1.0000 -0.4936855663
O   O16       1.0  0.46595  0.57042  0.80700  1.0000 -0.1739504733
O   O17       1.0  0.28760  0.81100  0.44150  1.0000 -0.4842598666
O   O18       1.0  0.25820  0.63750  0.23560  1.0000 -0.5149422516
O   O19       1.0  0.36030  0.73900  0.24130  1.0000 -0.5356027116
O   O20       1.0  0.18423  0.70860  0.44050  1.0000 -0.4936855663
O   O21       1.0  0.42958  0.46595  0.19300  1.0000 -0.1739504733
O   O22       1.0  0.18900  0.28760  0.55850  1.0000 -0.4842598666
O   O23       1.0  0.36250  0.25820  0.76440  1.0000 -0.5149422516
O   O24       1.0  0.26100  0.36030  0.75870  1.0000 -0.5356027116
O   O25       1.0  0.29140  0.18423  0.55950  1.0000 -0.4936855663
O   O26       1.0  0.57042  0.53405  0.19300  1.0000 -0.1739504733
O   O27       1.0  0.81100  0.71240  0.55850  1.0000 -0.4842598666
O   O28       1.0  0.63750  0.74180  0.76440  1.0000 -0.5151418675
O   O29       1.0  0.73900  0.63970  0.75870  1.0000 -0.5356027116
O   O30       1.0  0.70860  0.81577  0.55950  1.0000 -0.4936855663
O   O31       1.0  0.96595  0.07042  0.69300  1.0000 -0.1739504733
O   O32       1.0  0.78760  0.31100  0.05850  1.0000 -0.4842598666
O   O33       1.0  0.75820  0.13750  0.26440  1.0000 -0.5151418675
O   O34       1.0  0.86030  0.23900  0.25870  1.0000 -0.5356027116
O   O35       1.0  0.68423  0.20860  0.05950  1.0000 -0.4936855663
O   O36       1.0  0.03405  0.92958  0.69300  1.0000 -0.1739504733
O   O37       1.0  0.21240  0.68900  0.05850  1.0000 -0.4842598666
O   O38       1.0  0.24180  0.86250  0.26440  1.0000 -0.5151418675
O   O39       1.0  0.13970  0.76100  0.25870  1.0000 -0.5356027116
O   O40       1.0  0.31577  0.79140  0.05950  1.0000 -0.4936855663
