# DDEC6 charges by PACMAN v1.1 (https://github.com/mtap-research/PACMAN-charge/)
data_c9ce02006c2_1_FSR_pacman
_symmetry_space_group_name_H-M   'P 1'
_cell_length_a   7.87800000
_cell_length_b   12.87700000
_cell_length_c   17.32500000
_cell_angle_alpha   90.00000000
_cell_angle_beta   90.00000000
_cell_angle_gamma   90.00000000
_symmetry_Int_Tables_number   1
_chemical_formula_structural   ZnH9C13N2O5
_chemical_formula_sum   'Zn4 H36 C52 N8 O20'
_cell_volume   1757.53472895
_cell_formula_units_Z   4
loop_
 _symmetry_equiv_pos_site_id
 _symmetry_equiv_pos_as_xyz
  1  'x, y, z'
loop_
 _atom_site_type_symbol
 _atom_site_label
 _atom_site_symmetry_multiplicity
 _atom_site_fract_x
 _atom_site_fract_y
 _atom_site_fract_z
 _atom_site_occupancy
 _atom_site_charge
Zn  Zn1  1  0.70953000  0.02030000  0.14133000  1.0 0.7444055714
Zn  Zn2  1  0.29047000  0.52030000  0.35867000  1.0 0.7444055714
Zn  Zn3  1  0.79047000  0.97970000  0.64133000  1.0 0.7444055714
Zn  Zn4  1  0.20953000  0.47970000  0.85867000  1.0 0.7444055714
H  H1  1  0.63586000  0.83656000  0.04660000  1.0 0.1031137966
H  H2  1  0.36414000  0.33656000  0.45340000  1.0 0.1031137966
H  H3  1  0.67758000  0.91036000  0.82342000  1.0 0.1304330963
H  H4  1  0.32242000  0.41036000  0.67658000  1.0 0.1304330963
H  H5  1  0.72721000  0.08356000  0.86056000  1.0 0.1304330963
H  H6  1  0.27279000  0.58356000  0.63944000  1.0 0.1304330963
H  H7  1  0.72219000  0.12678000  0.98981000  1.0 0.1097465108
H  H8  1  0.27781000  0.62678000  0.51019000  1.0 0.1097465108
H  H9  1  0.33908000  0.01140000  0.11820000  1.0 0.1097465108
H  H10  1  0.66092000  0.51140000  0.38180000  1.0 0.1097465108
H  H11  1  0.73078000  0.71589000  0.88566000  1.0 0.0931037143
H  H12  1  0.26922000  0.21589000  0.61434000  1.0 0.0931037143
H  H13  1  0.61039000  0.70212000  0.95943000  1.0 0.2042715786
H  H14  1  0.38961000  0.20212000  0.54057000  1.0 0.2042715786
H  H15  1  0.10958000  0.24643000  0.23119000  1.0 0.1353257038
H  H16  1  0.89042000  0.74643000  0.26881000  1.0 0.1353257038
H  H17  1  0.61749000  0.21405000  0.23038000  1.0 0.1097465108
H  H18  1  0.38251000  0.71405000  0.26962000  1.0 0.1097465108
H  H19  1  0.86414000  0.16344000  0.54660000  1.0 0.1031137966
H  H20  1  0.13586000  0.66344000  0.95340000  1.0 0.1031137966
H  H21  1  0.82242000  0.08964000  0.32342000  1.0 0.1304330963
H  H22  1  0.17758000  0.58964000  0.17658000  1.0 0.1304330963
H  H23  1  0.77279000  0.91644000  0.36056000  1.0 0.1304330963
H  H24  1  0.22721000  0.41644000  0.13944000  1.0 0.1304330963
H  H25  1  0.77781000  0.87322000  0.48981000  1.0 0.1097465108
H  H26  1  0.22219000  0.37322000  0.01019000  1.0 0.1097465108
H  H27  1  0.16092000  0.98860000  0.61820000  1.0 0.1097465108
H  H28  1  0.83908000  0.48860000  0.88180000  1.0 0.1097465108
H  H29  1  0.76922000  0.28411000  0.38566000  1.0 0.0931037143
H  H30  1  0.23078000  0.78411000  0.11434000  1.0 0.0931037143
H  H31  1  0.88961000  0.29788000  0.45943000  1.0 0.2042715786
H  H32  1  0.11039000  0.79788000  0.04057000  1.0 0.2054785528
H  H33  1  0.39042000  0.75357000  0.73119000  1.0 0.1353257038
H  H34  1  0.60958000  0.25357000  0.76881000  1.0 0.1304330963
H  H35  1  0.88251000  0.78595000  0.73038000  1.0 0.1097465108
H  H36  1  0.11749000  0.28595000  0.76962000  1.0 0.1097465108
C  C1  1  0.65470000  0.88710000  0.00760000  1.0 0.0488197096
C  C2  1  0.34530000  0.38710000  0.49240000  1.0 0.0488197096
C  C3  1  0.65160000  0.85540000  0.93120000  1.0 -0.0623882363
C  C4  1  0.34840000  0.35540000  0.56880000  1.0 -0.0623882363
C  C5  1  0.67840000  0.92880000  0.87650000  1.0 -0.0623882363
C  C6  1  0.32160000  0.42880000  0.62350000  1.0 -0.0623882363
C  C7  1  0.70710000  0.03160000  0.89840000  1.0 -0.1233688704
C  C8  1  0.29290000  0.53160000  0.60160000  1.0 -0.1233688704
C  C9  1  0.70600000  0.05650000  0.97490000  1.0 0.0770552405
C  C10  1  0.29400000  0.55650000  0.52510000  1.0 0.0770552405
C  C11  1  0.19440000  0.11910000  0.17180000  1.0 -0.0623882363
C  C12  1  0.80560000  0.61910000  0.32820000  1.0 -0.0623882363
C  C13  1  0.34590000  0.07100000  0.15040000  1.0 0.0749167018
C  C14  1  0.65410000  0.57100000  0.34960000  1.0 0.0749167018
C  C15  1  0.62720000  0.74240000  0.91140000  1.0 0.2054785528
C  C16  1  0.37280000  0.24240000  0.58860000  1.0 0.2042715786
C  C17  1  0.20850000  0.20930000  0.21630000  1.0 -0.0623882363
C  C18  1  0.79150000  0.70930000  0.28370000  1.0 -0.0623882363
C  C19  1  0.36660000  0.24410000  0.23840000  1.0 -0.0522895082
C  C20  1  0.63340000  0.74410000  0.26160000  1.0 -0.0522895082
C  C21  1  0.50870000  0.18960000  0.21520000  1.0 0.0391777
C  C22  1  0.49130000  0.68960000  0.28480000  1.0 0.0391777
C  C23  1  0.02960000  0.07170000  0.14800000  1.0 0.5466925391
C  C24  1  0.97040000  0.57170000  0.35200000  1.0 0.5466925391
C  C25  1  0.38870000  0.33960000  0.28900000  1.0 0.5466925391
C  C26  1  0.61130000  0.83960000  0.21100000  1.0 0.5466925391
C  C27  1  0.84530000  0.11290000  0.50760000  1.0 0.0488197096
C  C28  1  0.15470000  0.61290000  0.99240000  1.0 0.0488197096
C  C29  1  0.84840000  0.14460000  0.43120000  1.0 -0.0623882363
C  C30  1  0.15160000  0.64460000  0.06880000  1.0 -0.0623882363
C  C31  1  0.82160000  0.07120000  0.37650000  1.0 -0.0623882363
C  C32  1  0.17840000  0.57120000  0.12350000  1.0 -0.0623882363
C  C33  1  0.79290000  0.96840000  0.39840000  1.0 -0.1233688704
C  C34  1  0.20710000  0.46840000  0.10160000  1.0 -0.1233688704
C  C35  1  0.79400000  0.94350000  0.47490000  1.0 0.0770552405
C  C36  1  0.20600000  0.44350000  0.02510000  1.0 0.0770552405
C  C37  1  0.30560000  0.88090000  0.67180000  1.0 -0.0623882363
C  C38  1  0.69440000  0.38090000  0.82820000  1.0 -0.0623882363
C  C39  1  0.15410000  0.92900000  0.65040000  1.0 0.0749167018
C  C40  1  0.84590000  0.42900000  0.84960000  1.0 0.0770552405
C  C41  1  0.87280000  0.25760000  0.41140000  1.0 0.2042715786
C  C42  1  0.12720000  0.75760000  0.08860000  1.0 0.2042715786
C  C43  1  0.29150000  0.79070000  0.71630000  1.0 -0.0623882363
C  C44  1  0.70850000  0.29070000  0.78370000  1.0 -0.0623882363
C  C45  1  0.13340000  0.75590000  0.73840000  1.0 -0.0522895082
C  C46  1  0.86660000  0.25590000  0.76160000  1.0 -0.0522895082
C  C47  1  0.99130000  0.81040000  0.71520000  1.0 0.0391777
C  C48  1  0.00870000  0.31040000  0.78480000  1.0 0.0391777
C  C49  1  0.47040000  0.92830000  0.64800000  1.0 0.5466925391
C  C50  1  0.52960000  0.42830000  0.85200000  1.0 0.5466925391
C  C51  1  0.11130000  0.66040000  0.78900000  1.0 0.5466925391
C  C52  1  0.88870000  0.16040000  0.71100000  1.0 0.5466925391
N  N1  1  0.68280000  0.98520000  0.02900000  1.0 -0.2142924033
N  N2  1  0.31720000  0.48520000  0.47100000  1.0 -0.2142924033
N  N3  1  0.49880000  0.10270000  0.17180000  1.0 -0.2391957938
N  N4  1  0.50120000  0.60270000  0.32820000  1.0 -0.2391957938
N  N5  1  0.81720000  0.01480000  0.52900000  1.0 -0.2142924033
N  N6  1  0.18280000  0.51480000  0.97100000  1.0 -0.2142924033
N  N7  1  0.00120000  0.89730000  0.67180000  1.0 -0.2391957938
N  N8  1  0.99880000  0.39730000  0.82820000  1.0 -0.2391957938
O  O1  1  0.89470000  0.11370000  0.17550000  1.0 -0.5484484694
O  O2  1  0.10530000  0.61370000  0.32450000  1.0 -0.5484484694
O  O3  1  0.02950000  0.99520000  0.10640000  1.0 -0.5212752408
O  O4  1  0.97050000  0.49520000  0.39360000  1.0 -0.5212752408
O  O5  1  0.25910000  0.39990000  0.29110000  1.0 -0.5212752408
O  O6  1  0.74090000  0.89990000  0.20890000  1.0 -0.5212752408
O  O7  1  0.52050000  0.35070000  0.32480000  1.0 -0.5484484694
O  O8  1  0.47950000  0.85070000  0.17520000  1.0 -0.5484484694
O  O13  1  0.60530000  0.88630000  0.67550000  1.0 -0.5484484694
O  O14  1  0.39470000  0.38630000  0.82450000  1.0 -0.5484484694
O  O15  1  0.47050000  0.00480000  0.60640000  1.0 -0.5212752408
O  O16  1  0.52950000  0.50480000  0.89360000  1.0 -0.5212752408
O  O17  1  0.24090000  0.60010000  0.79110000  1.0 -0.5212752408
O  O18  1  0.75910000  0.10010000  0.70890000  1.0 -0.5212752408
O  O19  1  0.97950000  0.64930000  0.82480000  1.0 -0.5484484694
O  O20  1  0.02050000  0.14930000  0.67520000  1.0 -0.5484484694
O  O9  1  0.52400000  0.70100000  0.95400000  0.22 -0.150524333
O  O10  1  0.47600000  0.20100000  0.54600000  0.22 -0.150524333
O  O21  1  0.97600000  0.29900000  0.45400000  0.22 -0.150524333
O  O22  1  0.02400000  0.79900000  0.04600000  0.22 -0.150524333
O  O11  1  0.49980000  0.72890000  0.86700000  0.78 -0.2391957938
O  O12  1  0.50020000  0.22890000  0.63300000  0.78 -0.2391957938
O  O23  1  0.00020000  0.27110000  0.36700000  0.78 -0.2391957938
O  O24  1  0.99980000  0.77110000  0.13300000  0.78 -0.2391957938
