# DDEC6 charges by PACMAN v1.1 (https://github.com/mtap-research/PACMAN-charge/)
data_2021[Zn][nan]3[FSR]3
_chemical_formula_sum              "Zn8 H48 C96 N24 O40"
_cell_length_a       13.338
_cell_length_b       19.056
_cell_length_c       23.519
_cell_angle_alpha    90
_cell_angle_beta     90
_cell_angle_gamma    90

_symmetry_space_group_name_H-M    "P 1"
_symmetry_Int_Tables_number       1

loop_
  _symmetry_equiv_pos_as_xyz
  'x, y, z'

loop_
  _atom_site_type_symbol
  _atom_site_label
  _atom_site_symmetry_multiplicity
  _atom_site_fract_x
  _atom_site_fract_y
  _atom_site_fract_z
  _atom_site_occupancy
  _atom_site_charge
Zn  Zn1       1.0  0.50000  0.25000  0.25230  1.0000 0.7611875377
Zn  Zn2       1.0  0.00000  0.75000  0.24770  1.0000 0.7611875377
Zn  Zn3       1.0  0.50000  0.75000  0.74770  1.0000 0.7611875377
Zn  Zn4       1.0  0.00000  0.25000  0.75230  1.0000 0.7611875377
Zn  Zn5       1.0  0.50000  0.25000  0.40813  1.0000 0.7611875377
Zn  Zn6       1.0  0.00000  0.75000  0.09187  1.0000 0.7611875377
Zn  Zn7       1.0  0.50000  0.75000  0.59187  1.0000 0.7611875377
Zn  Zn8       1.0  0.00000  0.25000  0.90813  1.0000 0.7611875377
H   H1        1.0  0.59308  0.09588  0.24687  1.0000 0.1506025113
H   H2        1.0  0.90692  0.59588  0.25313  1.0000 0.1506025113
H   H3        1.0  0.09308  0.90412  0.25313  1.0000 0.1506025113
H   H4        1.0  0.40692  0.40412  0.24687  1.0000 0.1506025113
H   H5        1.0  0.40692  0.90412  0.75313  1.0000 0.1506025113
H   H6        1.0  0.09308  0.40412  0.74687  1.0000 0.1506025113
H   H7        1.0  0.90692  0.09588  0.74687  1.0000 0.1506025113
H   H8        1.0  0.59308  0.59588  0.75313  1.0000 0.1506025113
H   H9        1.0  0.58052  0.09452  0.41617  1.0000 0.1311854935
H   H10       1.0  0.91948  0.59452  0.08383  1.0000 0.1311854935
H   H11       1.0  0.08052  0.90548  0.08383  1.0000 0.1311854935
H   H12       1.0  0.41948  0.40548  0.41617  1.0000 0.1311854935
H   H13       1.0  0.41948  0.90548  0.58383  1.0000 0.1311854935
H   H14       1.0  0.08052  0.40548  0.91617  1.0000 0.1311854935
H   H15       1.0  0.91948  0.09452  0.91617  1.0000 0.1311854935
H   H16       1.0  0.58052  0.59452  0.58383  1.0000 0.1311854935
H   H17       1.0  0.76618  0.87950  0.32083  1.0000 0.1506025113
H   H18       1.0  0.73382  0.37950  0.17917  1.0000 0.1399847485
H   H19       1.0  0.26618  0.12050  0.17917  1.0000 0.1399847485
H   H20       1.0  0.23382  0.62050  0.32083  1.0000 0.1506025113
H   H21       1.0  0.23382  0.12050  0.67917  1.0000 0.1399847485
H   H22       1.0  0.26618  0.62050  0.82083  1.0000 0.1399847485
H   H23       1.0  0.73382  0.87950  0.82083  1.0000 0.1399847485
H   H24       1.0  0.76618  0.37950  0.67917  1.0000 0.1399847485
H   H25       1.0  0.76413  0.71070  0.42383  1.0000 0.1311854935
H   H26       1.0  0.73587  0.21070  0.07617  1.0000 0.1311854935
H   H27       1.0  0.26413  0.28930  0.07617  1.0000 0.1311854935
H   H28       1.0  0.23587  0.78930  0.42383  1.0000 0.1311854935
H   H29       1.0  0.23587  0.28930  0.57617  1.0000 0.1311854935
H   H30       1.0  0.26413  0.78930  0.92383  1.0000 0.1311854935
H   H31       1.0  0.73587  0.71070  0.92383  1.0000 0.1311854935
H   H32       1.0  0.76413  0.21070  0.57617  1.0000 0.1311854935
H   H33       1.0  0.60281  0.88159  0.46302  1.0000 0.1399847485
H   H34       1.0  0.89719  0.38159  0.03698  1.0000 0.1399847485
H   H35       1.0  0.10281  0.11841  0.03698  1.0000 0.1399847485
H   H36       1.0  0.39719  0.61841  0.46302  1.0000 0.1399847485
H   H37       1.0  0.39719  0.11841  0.53698  1.0000 0.1399847485
H   H38       1.0  0.10281  0.61841  0.96302  1.0000 0.1399847485
H   H39       1.0  0.89719  0.88159  0.96302  1.0000 0.1399847485
H   H40       1.0  0.60281  0.38159  0.53698  1.0000 0.1399847485
H   H41       1.0  0.61762  0.98165  0.40807  1.0000 0.2764415722
H   H42       1.0  0.88238  0.48165  0.09193  1.0000 0.2764415722
H   H43       1.0  0.11762  0.01835  0.09193  1.0000 0.274809844
H   H44       1.0  0.38238  0.51835  0.40807  1.0000 0.2764415722
H   H45       1.0  0.38238  0.01835  0.59193  1.0000 0.2764415722
H   H46       1.0  0.11762  0.51835  0.90807  1.0000 0.2764415722
H   H47       1.0  0.88238  0.98165  0.90807  1.0000 0.2764415722
H   H48       1.0  0.61762  0.48165  0.59193  1.0000 0.2764415722
C   C1        1.0  0.58320  0.10890  0.28455  1.0000 0.0210943023
C   C2        1.0  0.91680  0.60890  0.21545  1.0000 0.0210943023
C   C3        1.0  0.08320  0.89110  0.21545  1.0000 0.0210943023
C   C4        1.0  0.41680  0.39110  0.28455  1.0000 0.0210943023
C   C5        1.0  0.41680  0.89110  0.71545  1.0000 0.0210943023
C   C6        1.0  0.08320  0.39110  0.78455  1.0000 0.0210943023
C   C7        1.0  0.91680  0.10890  0.78455  1.0000 0.0210943023
C   C8        1.0  0.58320  0.60890  0.71545  1.0000 0.0210943023
C   C9        1.0  0.60130  0.06640  0.33113  1.0000 -0.1394577258
C   C10       1.0  0.89870  0.56640  0.16887  1.0000 -0.1394577258
C   C11       1.0  0.10130  0.93360  0.16887  1.0000 -0.1394577258
C   C12       1.0  0.39870  0.43360  0.33113  1.0000 -0.1394577258
C   C13       1.0  0.39870  0.93360  0.66887  1.0000 -0.1394577258
C   C14       1.0  0.10130  0.43360  0.83113  1.0000 -0.1394577258
C   C15       1.0  0.89870  0.06640  0.83113  1.0000 -0.1394577258
C   C16       1.0  0.60130  0.56640  0.66887  1.0000 -0.1394577258
C   C17       1.0  0.57620  0.10819  0.37829  1.0000 -0.0228125995
C   C18       1.0  0.92380  0.60819  0.12171  1.0000 -0.0251080774
C   C19       1.0  0.07620  0.89181  0.12171  1.0000 -0.0251080774
C   C20       1.0  0.42380  0.39181  0.37829  1.0000 -0.0228125995
C   C21       1.0  0.42380  0.89181  0.62171  1.0000 -0.0228125995
C   C22       1.0  0.07620  0.39181  0.87829  1.0000 -0.0228125995
C   C23       1.0  0.92380  0.10819  0.87829  1.0000 -0.0228125995
C   C24       1.0  0.57620  0.60819  0.62171  1.0000 -0.0228125995
C   C25       1.0  0.64030  0.99450  0.32956  1.0000 0.4904502101
C   C26       1.0  0.85970  0.49450  0.17044  1.0000 0.4904502101
C   C27       1.0  0.14030  0.00550  0.17044  1.0000 0.4904502101
C   C28       1.0  0.35970  0.50550  0.32956  1.0000 0.4904502101
C   C29       1.0  0.35970  0.00550  0.67044  1.0000 0.4904502101
C   C30       1.0  0.14030  0.50550  0.82956  1.0000 0.4904502101
C   C31       1.0  0.85970  0.99450  0.82956  1.0000 0.4904502101
C   C32       1.0  0.64030  0.49450  0.67044  1.0000 0.4904502101
C   C33       1.0  0.67880  0.89090  0.39041  1.0000 0.2168093856
C   C34       1.0  0.82120  0.39090  0.10959  1.0000 0.2168093856
C   C35       1.0  0.17880  0.10910  0.10959  1.0000 0.2168093856
C   C36       1.0  0.32120  0.60910  0.39041  1.0000 0.2168093856
C   C37       1.0  0.32120  0.10910  0.60959  1.0000 0.2168093856
C   C38       1.0  0.17880  0.60910  0.89041  1.0000 0.2168093856
C   C39       1.0  0.82120  0.89090  0.89041  1.0000 0.2168093856
C   C40       1.0  0.67880  0.39090  0.60959  1.0000 0.2168093856
C   C41       1.0  0.74470  0.85740  0.35392  1.0000 -0.1527120693
C   C42       1.0  0.75530  0.35740  0.14608  1.0000 -0.1527120693
C   C43       1.0  0.24470  0.14260  0.14608  1.0000 -0.1527120693
C   C44       1.0  0.25530  0.64260  0.35392  1.0000 -0.1527120693
C   C45       1.0  0.25530  0.14260  0.64608  1.0000 -0.1527120693
C   C46       1.0  0.24470  0.64260  0.85392  1.0000 -0.1527120693
C   C47       1.0  0.75530  0.85740  0.85392  1.0000 -0.1527120693
C   C48       1.0  0.74470  0.35740  0.64608  1.0000 -0.1527120693
C   C49       1.0  0.77870  0.79010  0.36736  1.0000 0.0079600902
C   C50       1.0  0.72130  0.29010  0.13264  1.0000 0.0079600902
C   C51       1.0  0.27870  0.20990  0.13264  1.0000 0.0079600902
C   C52       1.0  0.22130  0.70990  0.36736  1.0000 0.0079600902
C   C53       1.0  0.22130  0.20990  0.63264  1.0000 0.0079600902
C   C54       1.0  0.27870  0.70990  0.86736  1.0000 0.0079600902
C   C55       1.0  0.72130  0.79010  0.86736  1.0000 0.0079600902
C   C56       1.0  0.77870  0.29010  0.63264  1.0000 0.0079600902
C   C57       1.0  0.74440  0.75650  0.41599  1.0000 -0.0803997003
C   C58       1.0  0.75560  0.25650  0.08401  1.0000 -0.0803997003
C   C59       1.0  0.24440  0.24350  0.08401  1.0000 -0.0803997003
C   C60       1.0  0.25560  0.74350  0.41599  1.0000 -0.0803997003
C   C61       1.0  0.25560  0.24350  0.58401  1.0000 -0.0803997003
C   C62       1.0  0.24440  0.74350  0.91599  1.0000 -0.0803997003
C   C63       1.0  0.75560  0.75650  0.91599  1.0000 -0.0803997003
C   C64       1.0  0.74440  0.25650  0.58401  1.0000 -0.0803997003
C   C65       1.0  0.67990  0.79190  0.45310  1.0000 -0.0033338394
C   C66       1.0  0.82010  0.29190  0.04690  1.0000 -0.0033338394
C   C67       1.0  0.17990  0.20810  0.04690  1.0000 -0.0033338394
C   C68       1.0  0.32010  0.70810  0.45310  1.0000 -0.0033338394
C   C69       1.0  0.32010  0.20810  0.54690  1.0000 -0.0033338394
C   C70       1.0  0.17990  0.70810  0.95310  1.0000 -0.0033338394
C   C71       1.0  0.82010  0.79190  0.95310  1.0000 -0.0033338394
C   C72       1.0  0.67990  0.29190  0.54690  1.0000 -0.0033338394
C   C73       1.0  0.64720  0.85840  0.43900  1.0000 -0.1802438133
C   C74       1.0  0.85280  0.35840  0.06100  1.0000 -0.1802438133
C   C75       1.0  0.14720  0.14160  0.06100  1.0000 -0.1802438133
C   C76       1.0  0.35280  0.64160  0.43900  1.0000 -0.1802438133
C   C77       1.0  0.35280  0.14160  0.56100  1.0000 -0.1802438133
C   C78       1.0  0.14720  0.64160  0.93900  1.0000 -0.1802438133
C   C79       1.0  0.85280  0.85840  0.93900  1.0000 -0.1802438133
C   C80       1.0  0.64720  0.35840  0.56100  1.0000 -0.1802438133
C   C81       1.0  0.64190  0.75750  0.50540  1.0000 0.5531784213
C   C82       1.0  0.85810  0.25750  0.99460  1.0000 0.5531784213
C   C83       1.0  0.14190  0.24250  0.99460  1.0000 0.5531784213
C   C84       1.0  0.35810  0.74250  0.50540  1.0000 0.5531784213
C   C85       1.0  0.35810  0.24250  0.49460  1.0000 0.5531784213
C   C86       1.0  0.14190  0.74250  0.00540  1.0000 0.5531784213
C   C87       1.0  0.85810  0.75750  0.00540  1.0000 0.5531784213
C   C88       1.0  0.64190  0.25750  0.49460  1.0000 0.5531784213
C   C89       1.0  0.85310  0.75450  0.32888  1.0000 0.5531784213
C   C90       1.0  0.64690  0.25450  0.17112  1.0000 0.5531784213
C   C91       1.0  0.35310  0.24550  0.17112  1.0000 0.5531784213
C   C92       1.0  0.14690  0.74550  0.32888  1.0000 0.5531784213
C   C93       1.0  0.14690  0.24550  0.67112  1.0000 0.5531784213
C   C94       1.0  0.35310  0.74550  0.82888  1.0000 0.5531784213
C   C95       1.0  0.64690  0.75450  0.82888  1.0000 0.5531784213
C   C96       1.0  0.85310  0.25450  0.67112  1.0000 0.5531784213
N   N1        1.0  0.54930  0.17164  0.30170  1.0000 -0.1613993392
N   N2        1.0  0.95070  0.67164  0.19830  1.0000 -0.1613993392
N   N3        1.0  0.04930  0.82836  0.19830  1.0000 -0.1613993392
N   N4        1.0  0.45070  0.32836  0.30170  1.0000 -0.1613993392
N   N5        1.0  0.45070  0.82836  0.69830  1.0000 -0.1613993392
N   N6        1.0  0.04930  0.32836  0.80170  1.0000 -0.1613993392
N   N7        1.0  0.95070  0.17164  0.80170  1.0000 -0.1613993392
N   N8        1.0  0.54930  0.67164  0.69830  1.0000 -0.1613993392
N   N9        1.0  0.54520  0.17063  0.35974  1.0000 -0.1527120693
N   N10       1.0  0.95480  0.67063  0.14026  1.0000 -0.1527120693
N   N11       1.0  0.04520  0.82937  0.14026  1.0000 -0.1527120693
N   N12       1.0  0.45480  0.32937  0.35974  1.0000 -0.1527120693
N   N13       1.0  0.45480  0.82937  0.64026  1.0000 -0.1527120693
N   N14       1.0  0.04520  0.32937  0.85974  1.0000 -0.1527120693
N   N15       1.0  0.95480  0.17063  0.85974  1.0000 -0.1527120693
N   N16       1.0  0.54520  0.67063  0.64026  1.0000 -0.1527120693
N   N17       1.0  0.64200  0.95959  0.37931  1.0000 -0.3215032116
N   N18       1.0  0.85800  0.45959  0.12069  1.0000 -0.3215032116
N   N19       1.0  0.14200  0.04041  0.12069  1.0000 -0.3215032116
N   N20       1.0  0.35800  0.54041  0.37931  1.0000 -0.3215032116
N   N21       1.0  0.35800  0.04041  0.62069  1.0000 -0.3215032116
N   N22       1.0  0.14200  0.54041  0.87931  1.0000 -0.3215032116
N   N23       1.0  0.85800  0.95959  0.87931  1.0000 -0.3215032116
N   N24       1.0  0.64200  0.45959  0.62069  1.0000 -0.3215032116
O   O1        1.0  0.89020  0.79292  0.29000  1.0000 -0.499307827
O   O2        1.0  0.60980  0.29292  0.21000  1.0000 -0.499307827
O   O3        1.0  0.39020  0.20708  0.21000  1.0000 -0.499307827
O   O4        1.0  0.10980  0.70708  0.29000  1.0000 -0.499307827
O   O5        1.0  0.10980  0.20708  0.71000  1.0000 -0.499307827
O   O6        1.0  0.39020  0.70708  0.79000  1.0000 -0.499307827
O   O7        1.0  0.60980  0.79292  0.79000  1.0000 -0.499307827
O   O8        1.0  0.89020  0.29292  0.71000  1.0000 -0.499307827
O   O9        1.0  0.87540  0.69256  0.33621  1.0000 -0.4461153977
O   O10       1.0  0.62460  0.19256  0.16379  1.0000 -0.4433662129
O   O11       1.0  0.37540  0.30744  0.16379  1.0000 -0.4433662129
O   O12       1.0  0.12460  0.80744  0.33621  1.0000 -0.4461153977
O   O13       1.0  0.12460  0.30744  0.66379  1.0000 -0.4433662129
O   O14       1.0  0.37540  0.80744  0.83621  1.0000 -0.4433662129
O   O15       1.0  0.62460  0.69256  0.83621  1.0000 -0.4433662129
O   O16       1.0  0.87540  0.19256  0.66379  1.0000 -0.4433662129
O   O17       1.0  0.65340  0.69280  0.51130  1.0000 -0.499307827
O   O18       1.0  0.84660  0.19280  0.98870  1.0000 -0.499307827
O   O19       1.0  0.15340  0.30720  0.98870  1.0000 -0.499307827
O   O20       1.0  0.34660  0.80720  0.51130  1.0000 -0.499307827
O   O21       1.0  0.34660  0.30720  0.48870  1.0000 -0.499307827
O   O22       1.0  0.15340  0.80720  0.01130  1.0000 -0.499307827
O   O23       1.0  0.84660  0.69280  0.01130  1.0000 -0.499307827
O   O24       1.0  0.65340  0.19280  0.48870  1.0000 -0.499307827
O   O25       1.0  0.59700  0.79503  0.54035  1.0000 -0.5069957309
O   O26       1.0  0.90300  0.29503  0.95965  1.0000 -0.5069957309
O   O27       1.0  0.09700  0.20497  0.95965  1.0000 -0.5069957309
O   O28       1.0  0.40300  0.70497  0.54035  1.0000 -0.5069957309
O   O29       1.0  0.40300  0.20497  0.45965  1.0000 -0.5069957309
O   O30       1.0  0.09700  0.70497  0.04035  1.0000 -0.5069957309
O   O31       1.0  0.90300  0.79503  0.04035  1.0000 -0.5069957309
O   O32       1.0  0.59700  0.29503  0.45965  1.0000 -0.5069957309
O   O33       1.0  0.66610  0.96750  0.28503  1.0000 -0.4108802796
O   O34       1.0  0.83390  0.46750  0.21497  1.0000 -0.4108802796
O   O35       1.0  0.16610  0.03250  0.21497  1.0000 -0.4108802796
O   O36       1.0  0.33390  0.53250  0.28503  1.0000 -0.4108802796
O   O37       1.0  0.33390  0.03250  0.71497  1.0000 -0.4108802796
O   O38       1.0  0.16610  0.53250  0.78503  1.0000 -0.4108802796
O   O39       1.0  0.83390  0.96750  0.78503  1.0000 -0.4108802796
O   O40       1.0  0.66610  0.46750  0.71497  1.0000 -0.4108802796
