# DDEC6 charges by PACMAN v1.1 (https://github.com/mtap-research/PACMAN-charge/)
data_2020[Zn][dia]3[ASR]1
_chemical_formula_sum              "Zn4 H40 C48 N16 O16"
_cell_length_a       9.8812
_cell_length_b       14.7391
_cell_length_c       14.7855
_cell_angle_alpha    90
_cell_angle_beta     90
_cell_angle_gamma    90

_symmetry_space_group_name_H-M    "P 1"
_symmetry_Int_Tables_number       1

loop_
  _symmetry_equiv_pos_as_xyz
  'x, y, z'

loop_
  _atom_site_type_symbol
  _atom_site_label
  _atom_site_symmetry_multiplicity
  _atom_site_fract_x
  _atom_site_fract_y
  _atom_site_fract_z
  _atom_site_occupancy
  _atom_site_charge
Zn  Zn1       1.0  0.74515  0.72071  0.75207  1.0000 0.7580840515
Zn  Zn2       1.0  0.74515  0.27929  0.24793  1.0000 0.7580840515
Zn  Zn3       1.0  0.25485  0.77929  0.25207  1.0000 0.7580840515
Zn  Zn4       1.0  0.25485  0.22071  0.74793  1.0000 0.7580840515
H   H1        1.0  0.74330  0.29600  0.67960  1.0000 0.2804915832
H   H2        1.0  0.74330  0.70400  0.32040  1.0000 0.2804915832
H   H3        1.0  0.25670  0.20400  0.17960  1.0000 0.2804915832
H   H4        1.0  0.25670  0.79600  0.82040  1.0000 0.2804915832
H   H5        1.0  0.69610  0.39060  0.69560  1.0000 0.2970977353
H   H6        1.0  0.69610  0.60940  0.30440  1.0000 0.2970977353
H   H7        1.0  0.30390  0.10940  0.19560  1.0000 0.2970977353
H   H8        1.0  0.30390  0.89060  0.80440  1.0000 0.2970977353
H   H9        1.0  0.73350  0.55840  0.06550  1.0000 0.2718008982
H   H10       1.0  0.73350  0.44160  0.93450  1.0000 0.2718008982
H   H11       1.0  0.26650  0.94160  0.56550  1.0000 0.2718008982
H   H12       1.0  0.26650  0.05840  0.43450  1.0000 0.2718008982
H   H13       1.0  0.62810  0.58790  0.13130  1.0000 0.3067509758
H   H14       1.0  0.62810  0.41210  0.86870  1.0000 0.3067509758
H   H15       1.0  0.37190  0.91210  0.63130  1.0000 0.3067509758
H   H16       1.0  0.37190  0.08790  0.36870  1.0000 0.3067509758
H   H17       1.0  0.24290  0.42370  0.78320  1.0000 0.1170729922
H   H18       1.0  0.24290  0.57630  0.21680  1.0000 0.1170729922
H   H19       1.0  0.75710  0.07630  0.28320  1.0000 0.1170729922
H   H20       1.0  0.75710  0.92370  0.71680  1.0000 0.1170729922
H   H21       1.0  0.08910  0.53880  0.77870  1.0000 0.1364670174
H   H22       1.0  0.08910  0.46120  0.22130  1.0000 0.1364670174
H   H23       1.0  0.91090  0.96120  0.27870  1.0000 0.1364670174
H   H24       1.0  0.91090  0.03880  0.72130  1.0000 0.1364670174
H   H25       1.0  0.96970  0.25110  0.70740  1.0000 0.1128250661
H   H26       1.0  0.96970  0.74890  0.29260  1.0000 0.1128250661
H   H27       1.0  0.03030  0.24890  0.20740  1.0000 0.1128250661
H   H28       1.0  0.03030  0.75110  0.79260  1.0000 0.1128250661
H   H29       1.0  0.75490  0.62170  0.92010  1.0000 0.1020279454
H   H30       1.0  0.75490  0.37830  0.07990  1.0000 0.1020279454
H   H31       1.0  0.24510  0.87830  0.42010  1.0000 0.1020279454
H   H32       1.0  0.24510  0.12170  0.57990  1.0000 0.1020279454
H   H33       1.0  0.39900  0.80990  0.98110  1.0000 0.1364670174
H   H34       1.0  0.39900  0.19010  0.01890  1.0000 0.1364670174
H   H35       1.0  0.60100  0.69010  0.48110  1.0000 0.1364670174
H   H36       1.0  0.60100  0.30990  0.51890  1.0000 0.1364670174
H   H37       1.0  0.51350  0.81690  0.84500  1.0000 0.1020279454
H   H38       1.0  0.51350  0.18310  0.15500  1.0000 0.1020279454
H   H39       1.0  0.48650  0.68310  0.34500  1.0000 0.1020279454
H   H40       1.0  0.48650  0.31690  0.65500  1.0000 0.1020279454
C   C1        1.0  0.15390  0.41130  0.76690  1.0000 0.0179272962
C   C2        1.0  0.15390  0.58870  0.23310  1.0000 0.0179272962
C   C3        1.0  0.84610  0.08870  0.26690  1.0000 0.0179272962
C   C4        1.0  0.84610  0.91130  0.73310  1.0000 0.0179272962
C   C5        1.0  0.06110  0.48000  0.76540  1.0000 -0.1490869446
C   C6        1.0  0.06110  0.52000  0.23460  1.0000 -0.1490869446
C   C7        1.0  0.93890  0.02000  0.26540  1.0000 -0.1490869446
C   C8        1.0  0.93890  0.98000  0.73460  1.0000 -0.1490869446
C   C9        1.0  0.92850  0.46480  0.74510  1.0000 -0.0807077361
C   C10       1.0  0.92850  0.53520  0.25490  1.0000 -0.0807077361
C   C11       1.0  0.07150  0.03520  0.24510  1.0000 -0.0807077361
C   C12       1.0  0.07150  0.96480  0.75490  1.0000 -0.0807077361
C   C13       1.0  0.88800  0.37500  0.72290  1.0000 0.2260723191
C   C14       1.0  0.88800  0.62500  0.27710  1.0000 0.2260723191
C   C15       1.0  0.11200  0.12500  0.22290  1.0000 0.2260723191
C   C16       1.0  0.11200  0.87500  0.77710  1.0000 0.2260723191
C   C17       1.0  0.99210  0.31020  0.72360  1.0000 -0.0398920977
C   C18       1.0  0.99210  0.68980  0.27640  1.0000 -0.0398920977
C   C19       1.0  0.00790  0.18980  0.22360  1.0000 -0.0398920977
C   C20       1.0  0.00790  0.81020  0.77640  1.0000 -0.0398920977
C   C21       1.0  0.82660  0.54080  0.74910  1.0000 0.5536591934
C   C22       1.0  0.82660  0.45920  0.25090  1.0000 0.5536591934
C   C23       1.0  0.17340  0.95920  0.24910  1.0000 0.5536591934
C   C24       1.0  0.17340  0.04080  0.75090  1.0000 0.5536591934
C   C25       1.0  0.68360  0.66040  0.93400  1.0000 -0.0749088896
C   C26       1.0  0.68360  0.33960  0.06600  1.0000 -0.0749088896
C   C27       1.0  0.31640  0.83960  0.43400  1.0000 -0.0749088896
C   C28       1.0  0.31640  0.16040  0.56600  1.0000 -0.0749088896
C   C29       1.0  0.62100  0.65230  0.02040  1.0000 0.2577731686
C   C30       1.0  0.62100  0.34770  0.97960  1.0000 0.2577731686
C   C31       1.0  0.37900  0.84770  0.52040  1.0000 0.2577731686
C   C32       1.0  0.37900  0.15230  0.47960  1.0000 0.2577731686
C   C33       1.0  0.51100  0.71320  0.03790  1.0000 -0.0807077361
C   C34       1.0  0.51100  0.28680  0.96210  1.0000 -0.0807077361
C   C35       1.0  0.48900  0.78680  0.53790  1.0000 -0.0807077361
C   C36       1.0  0.48900  0.21320  0.46210  1.0000 -0.0807077361
C   C37       1.0  0.47250  0.77170  0.97140  1.0000 -0.1404898761
C   C38       1.0  0.47250  0.22830  0.02860  1.0000 -0.1404898761
C   C39       1.0  0.52750  0.72830  0.47140  1.0000 -0.1404898761
C   C40       1.0  0.52750  0.27170  0.52860  1.0000 -0.1404898761
C   C41       1.0  0.54100  0.77550  0.88870  1.0000 0.0179272962
C   C42       1.0  0.54100  0.22450  0.11130  1.0000 0.0179272962
C   C43       1.0  0.45900  0.72450  0.38870  1.0000 0.0179272962
C   C44       1.0  0.45900  0.27550  0.61130  1.0000 0.0179272962
C   C45       1.0  0.43900  0.71220  0.12670  1.0000 0.5593741464
C   C46       1.0  0.43900  0.28780  0.87330  1.0000 0.5593741464
C   C47       1.0  0.56100  0.78780  0.62670  1.0000 0.5593741464
C   C48       1.0  0.56100  0.21220  0.37330  1.0000 0.5593741464
N   N1        1.0  0.11840  0.32659  0.74530  1.0000 -0.1923755778
N   N2        1.0  0.11840  0.67341  0.25470  1.0000 -0.1923755778
N   N3        1.0  0.88160  0.17341  0.24530  1.0000 -0.1923755778
N   N4        1.0  0.88160  0.82659  0.75470  1.0000 -0.1923755778
N   N5        1.0  0.75980  0.35090  0.69600  1.0000 -0.5824452711
N   N6        1.0  0.75980  0.64910  0.30400  1.0000 -0.5824452711
N   N7        1.0  0.24020  0.14910  0.19600  1.0000 -0.5824452711
N   N8        1.0  0.24020  0.85090  0.80400  1.0000 -0.5824452711
N   N9        1.0  0.64450  0.72100  0.87202  1.0000 -0.1923755778
N   N10       1.0  0.64450  0.27900  0.12798  1.0000 -0.1923755778
N   N11       1.0  0.35550  0.77900  0.37202  1.0000 -0.1923755778
N   N12       1.0  0.35550  0.22100  0.62798  1.0000 -0.1923755778
N   N13       1.0  0.66610  0.59270  0.07920  1.0000 -0.5320860816
N   N14       1.0  0.66610  0.40730  0.92080  1.0000 -0.5320860816
N   N15       1.0  0.33390  0.90730  0.57920  1.0000 -0.5320860816
N   N16       1.0  0.33390  0.09270  0.42080  1.0000 -0.5320860816
O   O1        1.0  0.70420  0.52564  0.74550  1.0000 -0.5229659302
O   O2        1.0  0.70420  0.47436  0.25450  1.0000 -0.5229659302
O   O3        1.0  0.29580  0.97436  0.24550  1.0000 -0.5229659302
O   O4        1.0  0.29580  0.02564  0.75450  1.0000 -0.5229659302
O   O5        1.0  0.87620  0.62103  0.75550  1.0000 -0.5541684849
O   O6        1.0  0.87620  0.37897  0.24450  1.0000 -0.5541684849
O   O7        1.0  0.12380  0.87897  0.25550  1.0000 -0.5541684849
O   O8        1.0  0.12380  0.12103  0.74450  1.0000 -0.5541684849
O   O9        1.0  0.35240  0.77600  0.13763  1.0000 -0.5426424814
O   O10       1.0  0.35240  0.22400  0.86237  1.0000 -0.5426424814
O   O11       1.0  0.64760  0.72400  0.63763  1.0000 -0.5426424814
O   O12       1.0  0.64760  0.27600  0.36237  1.0000 -0.5426424814
O   O13       1.0  0.46170  0.65230  0.18481  1.0000 -0.5689939631
O   O14       1.0  0.46170  0.34770  0.81519  1.0000 -0.5689939631
O   O15       1.0  0.53830  0.84770  0.68481  1.0000 -0.5689939631
O   O16       1.0  0.53830  0.15230  0.31519  1.0000 -0.5689939631
