# DDEC6 charges by PACMAN v1.1 (https://github.com/mtap-research/PACMAN-charge/)
data_cm0c01737_si_003_28_ion_pacman
_symmetry_space_group_name_H-M   'P 1'
_cell_length_a   6.30750000
_cell_length_b   6.91020000
_cell_length_c   7.11630000
_cell_angle_alpha   90.00000000
_cell_angle_beta   90.00000000
_cell_angle_gamma   90.00000000
_symmetry_Int_Tables_number   1
_chemical_formula_structural   ZnSiH8C8(N2F3)2
_chemical_formula_sum   'Zn1 Si1 H8 C8 N4 F6'
_cell_volume   310.17166736
_cell_formula_units_Z   1
loop_
 _symmetry_equiv_pos_site_id
 _symmetry_equiv_pos_as_xyz
  1  'x, y, z'
loop_
 _atom_site_type_symbol
 _atom_site_label
 _atom_site_symmetry_multiplicity
 _atom_site_fract_x
 _atom_site_fract_y
 _atom_site_fract_z
 _atom_site_occupancy
 _atom_site_charge
Zn  Zn1  1  0.00000000  0.00000000  0.50000000  1.0 0.6495473845
Si  Si1  1  0.50000000  0.50000000  0.00000000  1.0 1.7351626022
H  H1  1  0.00000000  0.32770000  0.79536000  1.0 0.1190985892
H  H2  1  0.00000000  0.67230000  0.79536000  1.0 0.1190985892
H  H3  1  0.00000000  0.67230000  0.20464000  1.0 0.1190985892
H  H4  1  0.00000000  0.32770000  0.20464000  1.0 0.1190985892
H  H5  1  0.33077000  0.00000000  0.82480000  1.0 0.1190985892
H  H6  1  0.66923000  0.00000000  0.82480000  1.0 0.1190985892
H  H7  1  0.33077000  0.00000000  0.17520000  1.0 0.1190985892
H  H8  1  0.66923000  0.00000000  0.17520000  1.0 0.1190985892
C  C1  1  0.00000000  0.39982000  0.66096000  1.0 0.076615089
C  C2  1  0.00000000  0.60018000  0.66096000  1.0 0.076615089
C  C3  1  0.00000000  0.60018000  0.33904000  1.0 0.076615089
C  C4  1  0.00000000  0.39982000  0.33904000  1.0 0.076615089
C  C5  1  0.18298000  0.00000000  0.90247000  1.0 0.0732047571
C  C6  1  0.81702000  0.00000000  0.90247000  1.0 0.0732047571
C  C7  1  0.18298000  0.00000000  0.09753000  1.0 0.0732047571
C  C8  1  0.81702000  0.00000000  0.09753000  1.0 0.0732047571
N  N1  1  0.00000000  0.29848000  0.50000000  1.0 -0.1635290818
N  N2  1  0.00000000  0.70152000  0.50000000  1.0 -0.1635290818
N  N3  1  0.00000000  0.00000000  0.80585000  1.0 -0.1986038821
N  N4  1  0.00000000  0.00000000  0.19415000  1.0 -0.1986038821
F  F1  1  0.50000000  0.67766000  0.82852000  1.0 -0.5440605269
F  F2  1  0.50000000  0.32234000  0.82852000  1.0 -0.5440605269
F  F3  1  0.50000000  0.32234000  0.17148000  1.0 -0.5440605269
F  F4  1  0.50000000  0.67766000  0.17148000  1.0 -0.5440605269
F  F5  1  0.77154000  0.50000000  0.00000000  1.0 -0.5181350247
F  F6  1  0.22846000  0.50000000  0.00000000  1.0 -0.5181350247
