# DDEC6 charges by PACMAN v1.1 (https://github.com/mtap-research/PACMAN-charge/)
data_am0c03139_si_002_FSR_pacman
_symmetry_space_group_name_H-M   'P 1'
_cell_length_a   20.22200000
_cell_length_b   18.43300000
_cell_length_c   7.66410000
_cell_angle_alpha   90.00000000
_cell_angle_beta   90.00000000
_cell_angle_gamma   90.00000000
_symmetry_Int_Tables_number   1
_chemical_formula_structural   CaC4O5
_chemical_formula_sum   'Ca16 C64 O80'
_cell_volume   2856.80956888
_cell_formula_units_Z   16
loop_
 _symmetry_equiv_pos_site_id
 _symmetry_equiv_pos_as_xyz
  1  'x, y, z'
loop_
 _atom_site_type_symbol
 _atom_site_label
 _atom_site_symmetry_multiplicity
 _atom_site_fract_x
 _atom_site_fract_y
 _atom_site_fract_z
 _atom_site_occupancy
 _atom_site_charge
Ca  Ca1  1  0.72427000  0.52930000  0.70350000  1.0 1.2989597161
Ca  Ca2  1  0.72427000  0.02930000  0.20350000  1.0 1.2989597161
Ca  Ca3  1  0.22427000  0.52930000  0.20350000  1.0 1.2989597161
Ca  Ca4  1  0.22427000  0.02930000  0.70350000  1.0 1.2989597161
Ca  Ca5  1  0.27573000  0.47070000  0.70350000  1.0 1.2989597161
Ca  Ca6  1  0.27573000  0.97070000  0.20350000  1.0 1.2989597161
Ca  Ca7  1  0.77573000  0.47070000  0.20350000  1.0 1.2989597161
Ca  Ca8  1  0.77573000  0.97070000  0.70350000  1.0 1.2989597161
Ca  Ca9  1  0.97427000  0.72070000  0.95350000  1.0 1.2989597161
Ca  Ca10  1  0.97427000  0.22070000  0.45350000  1.0 1.2989597161
Ca  Ca11  1  0.47427000  0.72070000  0.45350000  1.0 1.2989597161
Ca  Ca12  1  0.47427000  0.22070000  0.95350000  1.0 1.2989597161
Ca  Ca13  1  0.52573000  0.77930000  0.95350000  1.0 1.2989597161
Ca  Ca14  1  0.52573000  0.27930000  0.45350000  1.0 1.2989597161
Ca  Ca15  1  0.02573000  0.77930000  0.45350000  1.0 1.2989597161
Ca  Ca16  1  0.02573000  0.27930000  0.95350000  1.0 1.2989597161
C  C1  1  0.58950000  0.32360000  0.04820000  1.0 0.1637199225
C  C2  1  0.58130000  0.33380000  0.86370000  1.0 0.1637199225
C  C3  1  0.63520000  0.38630000  0.86210000  1.0 0.1718435873
C  C4  1  0.64410000  0.37430000  0.04800000  1.0 0.1637199225
C  C5  1  0.58950000  0.82360000  0.54820000  1.0 0.1637199225
C  C6  1  0.58130000  0.83380000  0.36370000  1.0 0.1637199225
C  C7  1  0.63520000  0.88630000  0.36210000  1.0 0.1718435873
C  C8  1  0.64410000  0.87430000  0.54800000  1.0 0.1637199225
C  C9  1  0.08950000  0.32360000  0.54820000  1.0 0.1637199225
C  C10  1  0.08130000  0.33380000  0.36370000  1.0 0.1637199225
C  C11  1  0.13520000  0.38630000  0.36210000  1.0 0.1718435873
C  C12  1  0.14410000  0.37430000  0.54800000  1.0 0.1637199225
C  C13  1  0.08950000  0.82360000  0.04820000  1.0 0.1637199225
C  C14  1  0.08130000  0.83380000  0.86370000  1.0 0.1637199225
C  C15  1  0.13520000  0.88630000  0.86210000  1.0 0.1718435873
C  C16  1  0.14410000  0.87430000  0.04800000  1.0 0.1637199225
C  C17  1  0.41050000  0.67640000  0.04820000  1.0 0.1637199225
C  C18  1  0.41870000  0.66620000  0.86370000  1.0 0.1637199225
C  C19  1  0.36480000  0.61370000  0.86210000  1.0 0.1718435873
C  C20  1  0.35590000  0.62570000  0.04800000  1.0 0.1637199225
C  C21  1  0.41050000  0.17640000  0.54820000  1.0 0.1637199225
C  C22  1  0.41870000  0.16620000  0.36370000  1.0 0.1637199225
C  C23  1  0.36480000  0.11370000  0.36210000  1.0 0.1718435873
C  C24  1  0.35590000  0.12570000  0.54800000  1.0 0.1637199225
C  C25  1  0.91050000  0.67640000  0.54820000  1.0 0.1637199225
C  C26  1  0.91870000  0.66620000  0.36370000  1.0 0.1637199225
C  C27  1  0.86480000  0.61370000  0.36210000  1.0 0.1718435873
C  C28  1  0.85590000  0.62570000  0.54800000  1.0 0.1637199225
C  C29  1  0.91050000  0.17640000  0.04820000  1.0 0.1637199225
C  C30  1  0.91870000  0.16620000  0.86370000  1.0 0.1637199225
C  C31  1  0.86480000  0.11370000  0.86210000  1.0 0.1718435873
C  C32  1  0.85590000  0.12570000  0.04800000  1.0 0.1637199225
C  C33  1  0.83950000  0.92640000  0.29820000  1.0 0.1637199225
C  C34  1  0.83130000  0.91620000  0.11370000  1.0 0.1637199225
C  C35  1  0.88520000  0.86370000  0.11210000  1.0 0.1718435873
C  C36  1  0.89410000  0.87570000  0.29800000  1.0 0.1637199225
C  C37  1  0.83950000  0.42640000  0.79820000  1.0 0.1637199225
C  C38  1  0.83130000  0.41620000  0.61370000  1.0 0.1637199225
C  C39  1  0.88520000  0.36370000  0.61210000  1.0 0.1718435873
C  C40  1  0.89410000  0.37570000  0.79800000  1.0 0.1637199225
C  C41  1  0.33950000  0.92640000  0.79820000  1.0 0.1637199225
C  C42  1  0.33130000  0.91620000  0.61370000  1.0 0.1637199225
C  C43  1  0.38520000  0.86370000  0.61210000  1.0 0.1718435873
C  C44  1  0.39410000  0.87570000  0.79800000  1.0 0.1637199225
C  C45  1  0.33950000  0.42640000  0.29820000  1.0 0.1637199225
C  C46  1  0.33130000  0.41620000  0.11370000  1.0 0.1637199225
C  C47  1  0.38520000  0.36370000  0.11210000  1.0 0.1718435873
C  C48  1  0.39410000  0.37570000  0.29800000  1.0 0.1637199225
C  C49  1  0.66050000  0.57360000  0.29820000  1.0 0.1637199225
C  C50  1  0.66870000  0.58380000  0.11370000  1.0 0.1637199225
C  C51  1  0.61480000  0.63630000  0.11210000  1.0 0.1718435873
C  C52  1  0.60590000  0.62430000  0.29800000  1.0 0.1637199225
C  C53  1  0.66050000  0.07360000  0.79820000  1.0 0.1637199225
C  C54  1  0.66870000  0.08380000  0.61370000  1.0 0.1637199225
C  C55  1  0.61480000  0.13630000  0.61210000  1.0 0.1718435873
C  C56  1  0.60590000  0.12430000  0.79800000  1.0 0.1637199225
C  C57  1  0.16050000  0.57360000  0.79820000  1.0 0.1637199225
C  C58  1  0.16870000  0.58380000  0.61370000  1.0 0.1637199225
C  C59  1  0.11480000  0.63630000  0.61210000  1.0 0.1718435873
C  C60  1  0.10590000  0.62430000  0.79800000  1.0 0.1637199225
C  C61  1  0.16050000  0.07360000  0.29820000  1.0 0.1637199225
C  C62  1  0.16870000  0.08380000  0.11370000  1.0 0.1637199225
C  C63  1  0.11480000  0.13630000  0.11210000  1.0 0.1718435873
C  C64  1  0.10590000  0.12430000  0.29800000  1.0 0.1637199225
O  O1  1  0.55760000  0.28460000  0.15370000  1.0 -0.4796791646
O  O2  1  0.66000000  0.42660000  0.74780000  1.0 -0.4305025946
O  O3  1  0.68380000  0.39750000  0.16290000  1.0 -0.4403707936
O  O4  1  0.54080000  0.30570000  0.75890000  1.0 -0.4796791646
O  O5  1  0.64390000  0.62190000  0.70000000  1.0 -0.1317313534
O  O6  1  0.55760000  0.78460000  0.65370000  1.0 -0.4796791646
O  O7  1  0.66000000  0.92660000  0.24780000  1.0 -0.4305025946
O  O8  1  0.68380000  0.89750000  0.66290000  1.0 -0.4403707936
O  O9  1  0.54080000  0.80570000  0.25890000  1.0 -0.4796791646
O  O10  1  0.64390000  0.12190000  0.20000000  1.0 -0.1317313534
O  O11  1  0.05760000  0.28460000  0.65370000  1.0 -0.4796791646
O  O12  1  0.16000000  0.42660000  0.24780000  1.0 -0.4305025946
O  O13  1  0.18380000  0.39750000  0.66290000  1.0 -0.4403707936
O  O14  1  0.04080000  0.30570000  0.25890000  1.0 -0.4796791646
O  O15  1  0.14390000  0.62190000  0.20000000  1.0 -0.1317313534
O  O16  1  0.05760000  0.78460000  0.15370000  1.0 -0.4796791646
O  O17  1  0.16000000  0.92660000  0.74780000  1.0 -0.4305025946
O  O18  1  0.18380000  0.89750000  0.16290000  1.0 -0.4403707936
O  O19  1  0.04080000  0.80570000  0.75890000  1.0 -0.4796791646
O  O20  1  0.14390000  0.12190000  0.70000000  1.0 -0.1317313534
O  O21  1  0.44240000  0.71540000  0.15370000  1.0 -0.4796791646
O  O22  1  0.34000000  0.57340000  0.74780000  1.0 -0.4305025946
O  O23  1  0.31620000  0.60250000  0.16290000  1.0 -0.4403707936
O  O24  1  0.45920000  0.69430000  0.75890000  1.0 -0.4796791646
O  O25  1  0.35610000  0.37810000  0.70000000  1.0 -0.1317313534
O  O26  1  0.44240000  0.21540000  0.65370000  1.0 -0.4796791646
O  O27  1  0.34000000  0.07340000  0.24780000  1.0 -0.4305025946
O  O28  1  0.31620000  0.10250000  0.66290000  1.0 -0.4403707936
O  O29  1  0.45920000  0.19430000  0.25890000  1.0 -0.4796791646
O  O30  1  0.35610000  0.87810000  0.20000000  1.0 -0.1317313534
O  O31  1  0.94240000  0.71540000  0.65370000  1.0 -0.4796791646
O  O32  1  0.84000000  0.57340000  0.24780000  1.0 -0.4305025946
O  O33  1  0.81620000  0.60250000  0.66290000  1.0 -0.4403707936
O  O34  1  0.95920000  0.69430000  0.25890000  1.0 -0.4796791646
O  O35  1  0.85610000  0.37810000  0.20000000  1.0 -0.1317313534
O  O36  1  0.94240000  0.21540000  0.15370000  1.0 -0.4796791646
O  O37  1  0.84000000  0.07340000  0.74780000  1.0 -0.4305025946
O  O38  1  0.81620000  0.10250000  0.16290000  1.0 -0.4403707936
O  O39  1  0.95920000  0.19430000  0.75890000  1.0 -0.4796791646
O  O40  1  0.85610000  0.87810000  0.70000000  1.0 -0.1317313534
O  O41  1  0.80760000  0.96540000  0.40370000  1.0 -0.4796791646
O  O42  1  0.91000000  0.82340000  0.99780000  1.0 -0.4305025946
O  O43  1  0.93380000  0.85250000  0.41290000  1.0 -0.4403707936
O  O44  1  0.79080000  0.94430000  0.00890000  1.0 -0.4796791646
O  O45  1  0.89390000  0.62810000  0.95000000  1.0 -0.1317313534
O  O46  1  0.80760000  0.46540000  0.90370000  1.0 -0.4796791646
O  O47  1  0.91000000  0.32340000  0.49780000  1.0 -0.4305025946
O  O48  1  0.93380000  0.35250000  0.91290000  1.0 -0.4403707936
O  O49  1  0.79080000  0.44430000  0.50890000  1.0 -0.4796791646
O  O50  1  0.89390000  0.12810000  0.45000000  1.0 -0.1317313534
O  O51  1  0.30760000  0.96540000  0.90370000  1.0 -0.4796791646
O  O52  1  0.41000000  0.82340000  0.49780000  1.0 -0.4305025946
O  O53  1  0.43380000  0.85250000  0.91290000  1.0 -0.4403707936
O  O54  1  0.29080000  0.94430000  0.50890000  1.0 -0.4796791646
O  O55  1  0.39390000  0.62810000  0.45000000  1.0 -0.1317313534
O  O56  1  0.30760000  0.46540000  0.40370000  1.0 -0.4796791646
O  O57  1  0.41000000  0.32340000  0.99780000  1.0 -0.4305025946
O  O58  1  0.43380000  0.35250000  0.41290000  1.0 -0.4403707936
O  O59  1  0.29080000  0.44430000  0.00890000  1.0 -0.4796791646
O  O60  1  0.39390000  0.12810000  0.95000000  1.0 -0.1317313534
O  O61  1  0.69240000  0.53460000  0.40370000  1.0 -0.4796791646
O  O62  1  0.59000000  0.67660000  0.99780000  1.0 -0.4305025946
O  O63  1  0.56620000  0.64750000  0.41290000  1.0 -0.4403707936
O  O64  1  0.70920000  0.55570000  0.00890000  1.0 -0.4796791646
O  O65  1  0.60610000  0.87190000  0.95000000  1.0 -0.1317313534
O  O66  1  0.69240000  0.03460000  0.90370000  1.0 -0.4796791646
O  O67  1  0.59000000  0.17660000  0.49780000  1.0 -0.4305025946
O  O68  1  0.56620000  0.14750000  0.91290000  1.0 -0.4403707936
O  O69  1  0.70920000  0.05570000  0.50890000  1.0 -0.4796791646
O  O70  1  0.60610000  0.37190000  0.45000000  1.0 -0.1317313534
O  O71  1  0.19240000  0.53460000  0.90370000  1.0 -0.4796791646
O  O72  1  0.09000000  0.67660000  0.49780000  1.0 -0.4305025946
O  O73  1  0.06620000  0.64750000  0.91290000  1.0 -0.4403707936
O  O74  1  0.20920000  0.55570000  0.50890000  1.0 -0.4796791646
O  O75  1  0.10610000  0.87190000  0.45000000  1.0 -0.1317313534
O  O76  1  0.19240000  0.03460000  0.40370000  1.0 -0.4796791646
O  O77  1  0.09000000  0.17660000  0.99780000  1.0 -0.4305025946
O  O78  1  0.06620000  0.14750000  0.41290000  1.0 -0.4403707936
O  O79  1  0.20920000  0.05570000  0.00890000  1.0 -0.4796791646
O  O80  1  0.10610000  0.37190000  0.95000000  1.0 -0.1317313534
