# DDEC6 charges by PACMAN v1.1 (https://github.com/mtap-research/PACMAN-charge/)
data_c5dt03710g2_6_FSR_pacman
_symmetry_space_group_name_H-M   'P 1'
_cell_length_a   15.06240000
_cell_length_b   15.06240000
_cell_length_c   19.25410000
_cell_angle_alpha   90.00000000
_cell_angle_beta   90.00000000
_cell_angle_gamma   90.00000000
_symmetry_Int_Tables_number   1
_chemical_formula_structural   ZnH7C11NO4
_chemical_formula_sum   'Zn8 H56 C88 N8 O32'
_cell_volume   4368.29114604
_cell_formula_units_Z   8
loop_
 _symmetry_equiv_pos_site_id
 _symmetry_equiv_pos_as_xyz
  1  'x, y, z'
loop_
 _atom_site_type_symbol
 _atom_site_label
 _atom_site_symmetry_multiplicity
 _atom_site_fract_x
 _atom_site_fract_y
 _atom_site_fract_z
 _atom_site_occupancy
 _atom_site_charge
Zn  Zn1  1  0.00000000  0.00000000  0.07664000  1.0 0.7578565855
Zn  Zn2  1  0.00000000  0.00000000  0.42336000  1.0 0.7578565855
Zn  Zn3  1  0.50000000  0.50000000  0.57664000  1.0 0.7578565855
Zn  Zn4  1  0.50000000  0.50000000  0.92336000  1.0 0.7578565855
Zn  Zn5  1  0.00000000  0.00000000  0.92336000  1.0 0.7578565855
Zn  Zn6  1  0.00000000  0.00000000  0.57664000  1.0 0.7578565855
Zn  Zn7  1  0.50000000  0.50000000  0.42336000  1.0 0.7578565855
Zn  Zn8  1  0.50000000  0.50000000  0.07664000  1.0 0.7578565855
H  H1  1  0.85100000  0.24290000  0.10390000  1.0 0.126290957
H  H2  1  0.14900000  0.75710000  0.10390000  1.0 0.126290957
H  H3  1  0.75710000  0.85100000  0.10390000  1.0 0.126290957
H  H4  1  0.24290000  0.14900000  0.10390000  1.0 0.126290957
H  H5  1  0.14900000  0.24290000  0.39610000  1.0 0.126290957
H  H6  1  0.85100000  0.75710000  0.39610000  1.0 0.126290957
H  H7  1  0.24290000  0.85100000  0.39610000  1.0 0.126290957
H  H8  1  0.75710000  0.14900000  0.39610000  1.0 0.126290957
H  H9  1  0.35100000  0.74290000  0.60390000  1.0 0.126290957
H  H10  1  0.64900000  0.25710000  0.60390000  1.0 0.126290957
H  H11  1  0.25710000  0.35100000  0.60390000  1.0 0.126290957
H  H12  1  0.74290000  0.64900000  0.60390000  1.0 0.126290957
H  H13  1  0.64900000  0.74290000  0.89610000  1.0 0.126290957
H  H14  1  0.35100000  0.25710000  0.89610000  1.0 0.126290957
H  H15  1  0.74290000  0.35100000  0.89610000  1.0 0.126290957
H  H16  1  0.25710000  0.64900000  0.89610000  1.0 0.126290957
H  H17  1  0.14900000  0.75710000  0.89610000  1.0 0.126290957
H  H18  1  0.85100000  0.24290000  0.89610000  1.0 0.126290957
H  H19  1  0.24290000  0.14900000  0.89610000  1.0 0.126290957
H  H20  1  0.75710000  0.85100000  0.89610000  1.0 0.126290957
H  H21  1  0.85100000  0.75710000  0.60390000  1.0 0.126290957
H  H22  1  0.14900000  0.24290000  0.60390000  1.0 0.126290957
H  H23  1  0.75710000  0.14900000  0.60390000  1.0 0.126290957
H  H24  1  0.24290000  0.85100000  0.60390000  1.0 0.126290957
H  H25  1  0.64900000  0.25710000  0.39610000  1.0 0.126290957
H  H26  1  0.35100000  0.74290000  0.39610000  1.0 0.126290957
H  H27  1  0.74290000  0.64900000  0.39610000  1.0 0.126290957
H  H28  1  0.25710000  0.35100000  0.39610000  1.0 0.126290957
H  H29  1  0.35100000  0.25710000  0.10390000  1.0 0.126290957
H  H30  1  0.64900000  0.74290000  0.10390000  1.0 0.126290957
H  H31  1  0.25710000  0.64900000  0.10390000  1.0 0.126290957
H  H32  1  0.74290000  0.35100000  0.10390000  1.0 0.126290957
H  H33  1  0.90610000  0.09530000  0.18230000  0.375 0.0816114016
H  H34  1  0.09390000  0.90470000  0.18230000  0.375 0.0816114016
H  H35  1  0.90470000  0.90610000  0.18230000  0.375 0.0816114016
H  H36  1  0.09530000  0.09390000  0.18230000  0.375 0.0816114016
H  H37  1  0.09390000  0.09530000  0.31770000  0.375 0.0816114016
H  H38  1  0.90610000  0.90470000  0.31770000  0.375 0.0816114016
H  H39  1  0.09530000  0.90610000  0.31770000  0.375 0.0816114016
H  H40  1  0.90470000  0.09390000  0.31770000  0.375 0.0816114016
H  H41  1  0.40610000  0.59530000  0.68230000  0.375 0.0816114016
H  H42  1  0.59390000  0.40470000  0.68230000  0.375 0.0816114016
H  H43  1  0.40470000  0.40610000  0.68230000  0.375 0.0816114016
H  H44  1  0.59530000  0.59390000  0.68230000  0.375 0.0816114016
H  H45  1  0.59390000  0.59530000  0.81770000  0.375 0.0816114016
H  H46  1  0.40610000  0.40470000  0.81770000  0.375 0.0816114016
H  H47  1  0.59530000  0.40610000  0.81770000  0.375 0.0816114016
H  H48  1  0.40470000  0.59390000  0.81770000  0.375 0.0816114016
H  H49  1  0.09390000  0.90470000  0.81770000  0.375 0.0816114016
H  H50  1  0.90610000  0.09530000  0.81770000  0.375 0.0816114016
H  H51  1  0.09530000  0.09390000  0.81770000  0.375 0.0816114016
H  H52  1  0.90470000  0.90610000  0.81770000  0.375 0.0816114016
H  H53  1  0.90610000  0.90470000  0.68230000  0.375 0.0816114016
H  H54  1  0.09390000  0.09530000  0.68230000  0.375 0.0816114016
H  H55  1  0.90470000  0.09390000  0.68230000  0.375 0.0816114016
H  H56  1  0.09530000  0.90610000  0.68230000  0.375 0.0816114016
H  H57  1  0.59390000  0.40470000  0.31770000  0.375 0.0816114016
H  H58  1  0.40610000  0.59530000  0.31770000  0.375 0.0816114016
H  H59  1  0.59530000  0.59390000  0.31770000  0.375 0.0816114016
H  H60  1  0.40470000  0.40610000  0.31770000  0.375 0.0816114016
H  H61  1  0.40610000  0.40470000  0.18230000  0.375 0.0816114016
H  H62  1  0.59390000  0.59530000  0.18230000  0.375 0.0816114016
H  H63  1  0.40470000  0.59390000  0.18230000  0.375 0.0816114016
H  H64  1  0.59530000  0.40610000  0.18230000  0.375 0.0816114016
H  H65  1  0.99690000  0.12740000  0.21490000  0.375 0.0935443635
H  H66  1  0.00310000  0.87260000  0.21490000  0.375 0.0935443635
H  H67  1  0.87260000  0.99690000  0.21490000  0.375 0.0935443635
H  H68  1  0.12740000  0.00310000  0.21490000  0.375 0.0935443635
H  H69  1  0.00310000  0.12740000  0.28510000  0.375 0.0935443635
H  H70  1  0.99690000  0.87260000  0.28510000  0.375 0.0935443635
H  H71  1  0.12740000  0.99690000  0.28510000  0.375 0.0935443635
H  H72  1  0.87260000  0.00310000  0.28510000  0.375 0.0935443635
H  H73  1  0.49690000  0.62740000  0.71490000  0.375 0.0935443635
H  H74  1  0.50310000  0.37260000  0.71490000  0.375 0.0935443635
H  H75  1  0.37260000  0.49690000  0.71490000  0.375 0.0935443635
H  H76  1  0.62740000  0.50310000  0.71490000  0.375 0.0935443635
H  H77  1  0.50310000  0.62740000  0.78510000  0.375 0.0935443635
H  H78  1  0.49690000  0.37260000  0.78510000  0.375 0.0935443635
H  H79  1  0.62740000  0.49690000  0.78510000  0.375 0.0935443635
H  H80  1  0.37260000  0.50310000  0.78510000  0.375 0.0935443635
H  H81  1  0.00310000  0.87260000  0.78510000  0.375 0.0935443635
H  H82  1  0.99690000  0.12740000  0.78510000  0.375 0.0935443635
H  H83  1  0.12740000  0.00310000  0.78510000  0.375 0.0935443635
H  H84  1  0.87260000  0.99690000  0.78510000  0.375 0.0935443635
H  H85  1  0.99690000  0.87260000  0.71490000  0.375 0.0935443635
H  H86  1  0.00310000  0.12740000  0.71490000  0.375 0.0935443635
H  H87  1  0.87260000  0.00310000  0.71490000  0.375 0.0935443635
H  H88  1  0.12740000  0.99690000  0.71490000  0.375 0.0935443635
H  H89  1  0.50310000  0.37260000  0.28510000  0.375 0.0935443635
H  H90  1  0.49690000  0.62740000  0.28510000  0.375 0.0935443635
H  H91  1  0.62740000  0.50310000  0.28510000  0.375 0.0935443635
H  H92  1  0.37260000  0.49690000  0.28510000  0.375 0.0935443635
H  H93  1  0.49690000  0.37260000  0.21490000  0.375 0.0935443635
H  H94  1  0.50310000  0.62740000  0.21490000  0.375 0.0935443635
H  H95  1  0.37260000  0.50310000  0.21490000  0.375 0.0935443635
H  H96  1  0.62740000  0.49690000  0.21490000  0.375 0.0935443635
C  C1  1  0.92100000  0.15070000  0.00000000  1.0 0.5490219746
C  C2  1  0.07900000  0.84930000  0.00000000  1.0 0.5490219746
C  C3  1  0.84930000  0.92100000  0.00000000  1.0 0.5490219746
C  C4  1  0.15070000  0.07900000  0.00000000  1.0 0.5490219746
C  C5  1  0.07900000  0.15070000  0.50000000  1.0 0.5490219746
C  C6  1  0.92100000  0.84930000  0.50000000  1.0 0.5490219746
C  C7  1  0.15070000  0.92100000  0.50000000  1.0 0.5490219746
C  C8  1  0.84930000  0.07900000  0.50000000  1.0 0.5490219746
C  C9  1  0.42100000  0.65070000  0.50000000  1.0 0.5490219746
C  C10  1  0.57900000  0.34930000  0.50000000  1.0 0.5490219746
C  C11  1  0.34930000  0.42100000  0.50000000  1.0 0.5490219746
C  C12  1  0.65070000  0.57900000  0.50000000  1.0 0.5490219746
C  C13  1  0.57900000  0.65070000  0.00000000  1.0 0.5490219746
C  C14  1  0.42100000  0.34930000  0.00000000  1.0 0.5490219746
C  C15  1  0.65070000  0.42100000  0.00000000  1.0 0.5490219746
C  C16  1  0.34930000  0.57900000  0.00000000  1.0 0.5490219746
C  C17  1  0.85910000  0.22860000  0.00000000  1.0 0.0122193348
C  C18  1  0.14090000  0.77140000  0.00000000  1.0 0.0122193348
C  C19  1  0.77140000  0.85910000  0.00000000  1.0 0.0122193348
C  C20  1  0.22860000  0.14090000  0.00000000  1.0 0.0122193348
C  C21  1  0.14090000  0.22860000  0.50000000  1.0 0.0122193348
C  C22  1  0.85910000  0.77140000  0.50000000  1.0 0.0122193348
C  C23  1  0.22860000  0.85910000  0.50000000  1.0 0.0122193348
C  C24  1  0.77140000  0.14090000  0.50000000  1.0 0.0122193348
C  C25  1  0.35910000  0.72860000  0.50000000  1.0 0.0122193348
C  C26  1  0.64090000  0.27140000  0.50000000  1.0 0.0122193348
C  C27  1  0.27140000  0.35910000  0.50000000  1.0 0.0122193348
C  C28  1  0.72860000  0.64090000  0.50000000  1.0 0.0122193348
C  C29  1  0.64090000  0.72860000  0.00000000  1.0 0.0122193348
C  C30  1  0.35910000  0.27140000  0.00000000  1.0 0.0122193348
C  C31  1  0.72860000  0.35910000  0.00000000  1.0 0.0122193348
C  C32  1  0.27140000  0.64090000  0.00000000  1.0 0.0122193348
C  C33  1  0.82803000  0.26332000  0.06200000  1.0 -0.1209409286
C  C34  1  0.17197000  0.73668000  0.06200000  1.0 -0.1209409286
C  C35  1  0.73668000  0.82803000  0.06200000  1.0 -0.1209409286
C  C36  1  0.26332000  0.17197000  0.06200000  1.0 -0.1209409286
C  C37  1  0.17197000  0.26332000  0.43800000  1.0 -0.1209409286
C  C38  1  0.82803000  0.73668000  0.43800000  1.0 -0.1209409286
C  C39  1  0.26332000  0.82803000  0.43800000  1.0 -0.1209409286
C  C40  1  0.73668000  0.17197000  0.43800000  1.0 -0.1209409286
C  C41  1  0.32803000  0.76332000  0.56200000  1.0 -0.1209409286
C  C42  1  0.67197000  0.23668000  0.56200000  1.0 -0.1209409286
C  C43  1  0.23668000  0.32803000  0.56200000  1.0 -0.1209409286
C  C44  1  0.76332000  0.67197000  0.56200000  1.0 -0.1209409286
C  C45  1  0.67197000  0.76332000  0.93800000  1.0 -0.1209409286
C  C46  1  0.32803000  0.23668000  0.93800000  1.0 -0.1209409286
C  C47  1  0.76332000  0.32803000  0.93800000  1.0 -0.1209409286
C  C48  1  0.23668000  0.67197000  0.93800000  1.0 -0.1209409286
C  C49  1  0.17197000  0.73668000  0.93800000  1.0 -0.1209409286
C  C50  1  0.82803000  0.26332000  0.93800000  1.0 -0.1209409286
C  C51  1  0.26332000  0.17197000  0.93800000  1.0 -0.1209409286
C  C52  1  0.73668000  0.82803000  0.93800000  1.0 -0.1209409286
C  C53  1  0.82803000  0.73668000  0.56200000  1.0 -0.1209409286
C  C54  1  0.17197000  0.26332000  0.56200000  1.0 -0.1209409286
C  C55  1  0.73668000  0.17197000  0.56200000  1.0 -0.1209409286
C  C56  1  0.26332000  0.82803000  0.56200000  1.0 -0.1209409286
C  C57  1  0.67197000  0.23668000  0.43800000  1.0 -0.1209409286
C  C58  1  0.32803000  0.76332000  0.43800000  1.0 -0.1209409286
C  C59  1  0.76332000  0.67197000  0.43800000  1.0 -0.1209409286
C  C60  1  0.23668000  0.32803000  0.43800000  1.0 -0.1209409286
C  C61  1  0.32803000  0.23668000  0.06200000  1.0 -0.1209409286
C  C62  1  0.67197000  0.76332000  0.06200000  1.0 -0.1209409286
C  C63  1  0.23668000  0.67197000  0.06200000  1.0 -0.1209409286
C  C64  1  0.76332000  0.32803000  0.06200000  1.0 -0.1209409286
C  C65  1  0.95600000  0.07780000  0.21100000  0.375 -0.0506568169
C  C66  1  0.04400000  0.92220000  0.21100000  0.375 -0.0506568169
C  C67  1  0.92220000  0.95600000  0.21100000  0.375 -0.0506568169
C  C68  1  0.07780000  0.04400000  0.21100000  0.375 -0.0506568169
C  C69  1  0.04400000  0.07780000  0.28900000  0.375 -0.0506568169
C  C70  1  0.95600000  0.92220000  0.28900000  0.375 -0.0506568169
C  C71  1  0.07780000  0.95600000  0.28900000  0.375 -0.0506568169
C  C72  1  0.92220000  0.04400000  0.28900000  0.375 -0.0506568169
C  C73  1  0.45600000  0.57780000  0.71100000  0.375 -0.0506568169
C  C74  1  0.54400000  0.42220000  0.71100000  0.375 -0.0506568169
C  C75  1  0.42220000  0.45600000  0.71100000  0.375 -0.0506568169
C  C76  1  0.57780000  0.54400000  0.71100000  0.375 -0.0506568169
C  C77  1  0.54400000  0.57780000  0.78900000  0.375 -0.0506568169
C  C78  1  0.45600000  0.42220000  0.78900000  0.375 -0.0506568169
C  C79  1  0.57780000  0.45600000  0.78900000  0.375 -0.0506568169
C  C80  1  0.42220000  0.54400000  0.78900000  0.375 -0.0506568169
C  C81  1  0.04400000  0.92220000  0.78900000  0.375 -0.0506568169
C  C82  1  0.95600000  0.07780000  0.78900000  0.375 -0.0506568169
C  C83  1  0.07780000  0.04400000  0.78900000  0.375 -0.0506568169
C  C84  1  0.92220000  0.95600000  0.78900000  0.375 -0.0506568169
C  C85  1  0.95600000  0.92220000  0.71100000  0.375 -0.0506568169
C  C86  1  0.04400000  0.07780000  0.71100000  0.375 -0.0506568169
C  C87  1  0.92220000  0.04400000  0.71100000  0.375 -0.0506568169
C  C88  1  0.07780000  0.95600000  0.71100000  0.375 -0.0506568169
C  C89  1  0.54400000  0.42220000  0.28900000  0.375 -0.0506568169
C  C90  1  0.45600000  0.57780000  0.28900000  0.375 -0.0506568169
C  C91  1  0.57780000  0.54400000  0.28900000  0.375 -0.0506568169
C  C92  1  0.42220000  0.45600000  0.28900000  0.375 -0.0506568169
C  C93  1  0.45600000  0.42220000  0.21100000  0.375 -0.0506568169
C  C94  1  0.54400000  0.57780000  0.21100000  0.375 -0.0506568169
C  C95  1  0.42220000  0.54400000  0.21100000  0.375 -0.0506568169
C  C96  1  0.57780000  0.45600000  0.21100000  0.375 -0.0506568169
C  C97  1  0.91580000  0.02700000  0.20890000  0.375 -0.0382964216
C  C98  1  0.08420000  0.97300000  0.20890000  0.375 -0.0382964216
C  C99  1  0.97300000  0.91580000  0.20890000  0.375 -0.0382964216
C  C100  1  0.02700000  0.08420000  0.20890000  0.375 -0.0382964216
C  C101  1  0.08420000  0.02700000  0.29110000  0.375 -0.0382964216
C  C102  1  0.91580000  0.97300000  0.29110000  0.375 -0.0382964216
C  C103  1  0.02700000  0.91580000  0.29110000  0.375 -0.0382964216
C  C104  1  0.97300000  0.08420000  0.29110000  0.375 -0.0382964216
C  C105  1  0.41580000  0.52700000  0.70890000  0.375 -0.0382964216
C  C106  1  0.58420000  0.47300000  0.70890000  0.375 -0.0382964216
C  C107  1  0.47300000  0.41580000  0.70890000  0.375 -0.0382964216
C  C108  1  0.52700000  0.58420000  0.70890000  0.375 -0.0382964216
C  C109  1  0.58420000  0.52700000  0.79110000  0.375 -0.0382964216
C  C110  1  0.41580000  0.47300000  0.79110000  0.375 -0.0382964216
C  C111  1  0.52700000  0.41580000  0.79110000  0.375 -0.0382964216
C  C112  1  0.47300000  0.58420000  0.79110000  0.375 -0.0382964216
C  C113  1  0.08420000  0.97300000  0.79110000  0.375 -0.0382964216
C  C114  1  0.91580000  0.02700000  0.79110000  0.375 -0.0382964216
C  C115  1  0.02700000  0.08420000  0.79110000  0.375 -0.0382964216
C  C116  1  0.97300000  0.91580000  0.79110000  0.375 -0.0382964216
C  C117  1  0.91580000  0.97300000  0.70890000  0.375 -0.0382964216
C  C118  1  0.08420000  0.02700000  0.70890000  0.375 -0.0382964216
C  C119  1  0.97300000  0.08420000  0.70890000  0.375 -0.0382964216
C  C120  1  0.02700000  0.91580000  0.70890000  0.375 -0.0382964216
C  C121  1  0.58420000  0.47300000  0.29110000  0.375 -0.0382964216
C  C122  1  0.41580000  0.52700000  0.29110000  0.375 -0.0382964216
C  C123  1  0.52700000  0.58420000  0.29110000  0.375 -0.0382964216
C  C124  1  0.47300000  0.41580000  0.29110000  0.375 -0.0382964216
C  C125  1  0.41580000  0.47300000  0.20890000  0.375 -0.0382964216
C  C126  1  0.58420000  0.52700000  0.20890000  0.375 -0.0382964216
C  C127  1  0.47300000  0.58420000  0.20890000  0.375 -0.0382964216
C  C128  1  0.52700000  0.41580000  0.20890000  0.375 -0.0382964216
N  N1  1  0.00000000  0.00000000  0.18290000  1.0 -0.1209409286
N  N2  1  0.00000000  0.00000000  0.31710000  1.0 -0.1209409286
N  N3  1  0.50000000  0.50000000  0.68290000  1.0 -0.1142011056
N  N4  1  0.50000000  0.50000000  0.81710000  1.0 -0.1142011056
N  N5  1  0.00000000  0.00000000  0.81710000  1.0 -0.1142011056
N  N6  1  0.00000000  0.00000000  0.68290000  1.0 -0.1142011056
N  N7  1  0.50000000  0.50000000  0.31710000  1.0 -0.1209409286
N  N8  1  0.50000000  0.50000000  0.18290000  1.0 -0.1209409286
O  O1  1  0.94407000  0.12067000  0.05772000  1.0 -0.5322446017
O  O2  1  0.05593000  0.87933000  0.05772000  1.0 -0.5322446017
O  O3  1  0.87933000  0.94407000  0.05772000  1.0 -0.5322446017
O  O4  1  0.12067000  0.05593000  0.05772000  1.0 -0.5322446017
O  O5  1  0.05593000  0.12067000  0.44228000  1.0 -0.5322446017
O  O6  1  0.94407000  0.87933000  0.44228000  1.0 -0.5322446017
O  O7  1  0.12067000  0.94407000  0.44228000  1.0 -0.5322446017
O  O8  1  0.87933000  0.05593000  0.44228000  1.0 -0.5322446017
O  O9  1  0.44407000  0.62067000  0.55772000  1.0 -0.5322446017
O  O10  1  0.55593000  0.37933000  0.55772000  1.0 -0.5322446017
O  O11  1  0.37933000  0.44407000  0.55772000  1.0 -0.5322446017
O  O12  1  0.62067000  0.55593000  0.55772000  1.0 -0.5322446017
O  O13  1  0.55593000  0.62067000  0.94228000  1.0 -0.5322446017
O  O14  1  0.44407000  0.37933000  0.94228000  1.0 -0.5322446017
O  O15  1  0.62067000  0.44407000  0.94228000  1.0 -0.5322446017
O  O16  1  0.37933000  0.55593000  0.94228000  1.0 -0.5322446017
O  O17  1  0.05593000  0.87933000  0.94228000  1.0 -0.5322446017
O  O18  1  0.94407000  0.12067000  0.94228000  1.0 -0.5322446017
O  O19  1  0.12067000  0.05593000  0.94228000  1.0 -0.5322446017
O  O20  1  0.87933000  0.94407000  0.94228000  1.0 -0.5322446017
O  O21  1  0.94407000  0.87933000  0.55772000  1.0 -0.5322446017
O  O22  1  0.05593000  0.12067000  0.55772000  1.0 -0.5322446017
O  O23  1  0.87933000  0.05593000  0.55772000  1.0 -0.5322446017
O  O24  1  0.12067000  0.94407000  0.55772000  1.0 -0.5322446017
O  O25  1  0.55593000  0.37933000  0.44228000  1.0 -0.5322446017
O  O26  1  0.44407000  0.62067000  0.44228000  1.0 -0.5322446017
O  O27  1  0.62067000  0.55593000  0.44228000  1.0 -0.5322446017
O  O28  1  0.37933000  0.44407000  0.44228000  1.0 -0.5322446017
O  O29  1  0.44407000  0.37933000  0.05772000  1.0 -0.5322446017
O  O30  1  0.55593000  0.62067000  0.05772000  1.0 -0.5322446017
O  O31  1  0.37933000  0.55593000  0.05772000  1.0 -0.5322446017
O  O32  1  0.62067000  0.44407000  0.05772000  1.0 -0.5322446017
