# DDEC6 charges by PACMAN v1.1 (https://github.com/mtap-research/PACMAN-charge/)
data_cm071462f-file004_ASR_pacman
_symmetry_space_group_name_H-M   'P 1'
_cell_length_a   16.08290000
_cell_length_b   16.08290000
_cell_length_c   29.80500000
_cell_angle_alpha   90.00000000
_cell_angle_beta   90.00000000
_cell_angle_gamma   90.00000000
_symmetry_Int_Tables_number   1
_chemical_formula_structural   Zn5P6(HO6)4
_chemical_formula_sum   'Zn40 P48 H32 O192'
_cell_volume   7709.35153618
_cell_formula_units_Z   8
loop_
 _symmetry_equiv_pos_site_id
 _symmetry_equiv_pos_as_xyz
  1  'x, y, z'
loop_
 _atom_site_type_symbol
 _atom_site_label
 _atom_site_symmetry_multiplicity
 _atom_site_fract_x
 _atom_site_fract_y
 _atom_site_fract_z
 _atom_site_occupancy
 _atom_site_charge
Zn  Zn1  1  0.57962000  0.09134000  0.04036000  1.0 1.0728561302
Zn  Zn2  1  0.42038000  0.90866000  0.04036000  1.0 1.0728561302
Zn  Zn3  1  0.09134000  0.42038000  0.95964000  1.0 1.0728561302
Zn  Zn4  1  0.90866000  0.57962000  0.95964000  1.0 1.0728561302
Zn  Zn5  1  0.92038000  0.09134000  0.70964000  1.0 1.0728561302
Zn  Zn6  1  0.07962000  0.90866000  0.70964000  1.0 1.0728561302
Zn  Zn7  1  0.40866000  0.42038000  0.79036000  1.0 1.0728561302
Zn  Zn8  1  0.59134000  0.57962000  0.79036000  1.0 1.0728561302
Zn  Zn9  1  0.07962000  0.59134000  0.54036000  1.0 1.0728561302
Zn  Zn10  1  0.92038000  0.40866000  0.54036000  1.0 1.0728561302
Zn  Zn11  1  0.59134000  0.92038000  0.45964000  1.0 1.0728561302
Zn  Zn12  1  0.40866000  0.07962000  0.45964000  1.0 1.0728561302
Zn  Zn13  1  0.42038000  0.59134000  0.20964000  1.0 1.0728561302
Zn  Zn14  1  0.57962000  0.40866000  0.20964000  1.0 1.0728561302
Zn  Zn15  1  0.90866000  0.92038000  0.29036000  1.0 1.0728561302
Zn  Zn16  1  0.09134000  0.07962000  0.29036000  1.0 1.0728561302
Zn  Zn17  1  0.42952000  0.26419000  0.97139000  1.0 1.2366659914
Zn  Zn18  1  0.57048000  0.73581000  0.97139000  1.0 1.2366659914
Zn  Zn19  1  0.26419000  0.57048000  0.02861000  1.0 1.2366659914
Zn  Zn20  1  0.73581000  0.42952000  0.02861000  1.0 1.2366659914
Zn  Zn21  1  0.07048000  0.26419000  0.77861000  1.0 1.2366659914
Zn  Zn22  1  0.92952000  0.73581000  0.77861000  1.0 1.2366659914
Zn  Zn23  1  0.23581000  0.57048000  0.72139000  1.0 1.2366659914
Zn  Zn24  1  0.76419000  0.42952000  0.72139000  1.0 1.2366659914
Zn  Zn25  1  0.92952000  0.76419000  0.47139000  1.0 1.2346667965
Zn  Zn26  1  0.07048000  0.23581000  0.47139000  1.0 1.2366659914
Zn  Zn27  1  0.76419000  0.07048000  0.52861000  1.0 1.2366659914
Zn  Zn28  1  0.23581000  0.92952000  0.52861000  1.0 1.2366659914
Zn  Zn29  1  0.57048000  0.76419000  0.27861000  1.0 1.2346667965
Zn  Zn30  1  0.42952000  0.23581000  0.27861000  1.0 1.2366659914
Zn  Zn31  1  0.73581000  0.07048000  0.22139000  1.0 1.2366659914
Zn  Zn32  1  0.26419000  0.92952000  0.22139000  1.0 1.2346667965
Zn  Zn33  1  0.67298000  0.25000000  0.12500000  1.0 1.1206728985
Zn  Zn34  1  0.32702000  0.75000000  0.12500000  1.0 1.1206728985
Zn  Zn35  1  0.25000000  0.32702000  0.87500000  1.0 1.1206728985
Zn  Zn36  1  0.75000000  0.67298000  0.87500000  1.0 1.1206728985
Zn  Zn37  1  0.82702000  0.25000000  0.62500000  1.0 1.1206728985
Zn  Zn38  1  0.17298000  0.75000000  0.62500000  1.0 1.1206728985
Zn  Zn39  1  0.75000000  0.82702000  0.37500000  1.0 1.1206728985
Zn  Zn40  1  0.25000000  0.17298000  0.37500000  1.0 1.1206728985
P  P1  1  0.60212000  0.27615000  0.02624000  1.0 1.4410775585
P  P2  1  0.39788000  0.72385000  0.02624000  1.0 1.4410775585
P  P3  1  0.27615000  0.39788000  0.97376000  1.0 1.4410775585
P  P4  1  0.72385000  0.60212000  0.97376000  1.0 1.4410775585
P  P5  1  0.89788000  0.27615000  0.72376000  1.0 1.4410775585
P  P6  1  0.10212000  0.72385000  0.72376000  1.0 1.4410775585
P  P7  1  0.22385000  0.39788000  0.77624000  1.0 1.4410775585
P  P8  1  0.77615000  0.60212000  0.77624000  1.0 1.4410775585
P  P9  1  0.10212000  0.77615000  0.52624000  1.0 1.4410775585
P  P10  1  0.89788000  0.22385000  0.52624000  1.0 1.4410775585
P  P11  1  0.77615000  0.89788000  0.47376000  1.0 1.4410775585
P  P12  1  0.22385000  0.10212000  0.47376000  1.0 1.4410775585
P  P13  1  0.39788000  0.77615000  0.22376000  1.0 1.4410775585
P  P14  1  0.60212000  0.22385000  0.22376000  1.0 1.4410775585
P  P15  1  0.72385000  0.89788000  0.27624000  1.0 1.4410775585
P  P16  1  0.27615000  0.10212000  0.27624000  1.0 1.4410775585
P  P17  1  0.39057000  0.09070000  0.02054000  1.0 1.4308977942
P  P18  1  0.60943000  0.90930000  0.02054000  1.0 1.4308977942
P  P19  1  0.09070000  0.60943000  0.97946000  1.0 1.4410775585
P  P20  1  0.90930000  0.39057000  0.97946000  1.0 1.4308977942
P  P21  1  0.10943000  0.09070000  0.72946000  1.0 1.4410775585
P  P22  1  0.89057000  0.90930000  0.72946000  1.0 1.4308977942
P  P23  1  0.40930000  0.60943000  0.77054000  1.0 1.4308977942
P  P24  1  0.59070000  0.39057000  0.77054000  1.0 1.4308977942
P  P25  1  0.89057000  0.59070000  0.52054000  1.0 1.4308977942
P  P26  1  0.10943000  0.40930000  0.52054000  1.0 1.4410775585
P  P27  1  0.59070000  0.10943000  0.47946000  1.0 1.4308977942
P  P28  1  0.40930000  0.89057000  0.47946000  1.0 1.4308977942
P  P29  1  0.60943000  0.59070000  0.22946000  1.0 1.4308977942
P  P30  1  0.39057000  0.40930000  0.22946000  1.0 1.4308977942
P  P31  1  0.90930000  0.10943000  0.27054000  1.0 1.4308977942
P  P32  1  0.09070000  0.89057000  0.27054000  1.0 1.4410775585
P  P33  1  0.71600000  0.07054000  0.11357000  1.0 1.4410775585
P  P34  1  0.28400000  0.92946000  0.11357000  1.0 1.4410775585
P  P35  1  0.07054000  0.28400000  0.88643000  1.0 1.4464129825
P  P36  1  0.92946000  0.71600000  0.88643000  1.0 1.4410775585
P  P37  1  0.78400000  0.07054000  0.63643000  1.0 1.4410775585
P  P38  1  0.21600000  0.92946000  0.63643000  1.0 1.4464129825
P  P39  1  0.42946000  0.28400000  0.86357000  1.0 1.4410775585
P  P40  1  0.57054000  0.71600000  0.86357000  1.0 1.4410775585
P  P41  1  0.21600000  0.57054000  0.61357000  1.0 1.4464129825
P  P42  1  0.78400000  0.42946000  0.61357000  1.0 1.4410775585
P  P43  1  0.57054000  0.78400000  0.38643000  1.0 1.4410775585
P  P44  1  0.42946000  0.21600000  0.38643000  1.0 1.4410775585
P  P45  1  0.28400000  0.57054000  0.13643000  1.0 1.4410775585
P  P46  1  0.71600000  0.42946000  0.13643000  1.0 1.4410775585
P  P47  1  0.92946000  0.78400000  0.36357000  1.0 1.4410775585
P  P48  1  0.07054000  0.21600000  0.36357000  1.0 1.4464129825
H  H1  1  0.28830000  0.06280000  0.05500000  1.0 0.3994989396
H  H2  1  0.71170000  0.93720000  0.05500000  1.0 0.3994989396
H  H3  1  0.06280000  0.71170000  0.94500000  1.0 0.3994989396
H  H4  1  0.93720000  0.28830000  0.94500000  1.0 0.3994989396
H  H5  1  0.21170000  0.06280000  0.69500000  1.0 0.3994989396
H  H6  1  0.78830000  0.93720000  0.69500000  1.0 0.3994989396
H  H7  1  0.43720000  0.71170000  0.80500000  1.0 0.3994989396
H  H8  1  0.56280000  0.28830000  0.80500000  1.0 0.3994989396
H  H9  1  0.78830000  0.56280000  0.55500000  1.0 0.3994989396
H  H10  1  0.21170000  0.43720000  0.55500000  1.0 0.3994989396
H  H11  1  0.56280000  0.21170000  0.44500000  1.0 0.3994989396
H  H12  1  0.43720000  0.78830000  0.44500000  1.0 0.3994989396
H  H13  1  0.71170000  0.56280000  0.19500000  1.0 0.3994989396
H  H14  1  0.28830000  0.43720000  0.19500000  1.0 0.3994989396
H  H15  1  0.93720000  0.21170000  0.30500000  1.0 0.3994989396
H  H16  1  0.06280000  0.78830000  0.30500000  1.0 0.3994989396
H  H17  1  0.73560000  0.97880000  0.06990000  1.0 0.3912070302
H  H18  1  0.26440000  0.02120000  0.06990000  1.0 0.3912070302
H  H19  1  0.97880000  0.26440000  0.93010000  1.0 0.3912070302
H  H20  1  0.02120000  0.73560000  0.93010000  1.0 0.3912070302
H  H21  1  0.76440000  0.97880000  0.68010000  1.0 0.3912070302
H  H22  1  0.23560000  0.02120000  0.68010000  1.0 0.3912070302
H  H23  1  0.52120000  0.26440000  0.81990000  1.0 0.3912070302
H  H24  1  0.47880000  0.73560000  0.81990000  1.0 0.3912070302
H  H25  1  0.23560000  0.47880000  0.56990000  1.0 0.3912070302
H  H26  1  0.76440000  0.52120000  0.56990000  1.0 0.3912070302
H  H27  1  0.47880000  0.76440000  0.43010000  1.0 0.3912070302
H  H28  1  0.52120000  0.23560000  0.43010000  1.0 0.3912070302
H  H29  1  0.26440000  0.47880000  0.18010000  1.0 0.3912070302
H  H30  1  0.73560000  0.52120000  0.18010000  1.0 0.3912070302
H  H31  1  0.02120000  0.76440000  0.31990000  1.0 0.3912070302
H  H32  1  0.97880000  0.23560000  0.31990000  1.0 0.3912070302
O  O1  1  0.52070000  0.30750000  0.00650000  1.0 -0.693560345
O  O2  1  0.47930000  0.69250000  0.00650000  1.0 -0.693560345
O  O3  1  0.30750000  0.47930000  0.99350000  1.0 -0.6961302191
O  O4  1  0.69250000  0.52070000  0.99350000  1.0 -0.6961302191
O  O5  1  0.97930000  0.30750000  0.74350000  1.0 -0.6961302191
O  O6  1  0.02070000  0.69250000  0.74350000  1.0 -0.6961302191
O  O7  1  0.19250000  0.47930000  0.75650000  1.0 -0.6961302191
O  O8  1  0.80750000  0.52070000  0.75650000  1.0 -0.693560345
O  O9  1  0.02070000  0.80750000  0.50650000  1.0 -0.693560345
O  O10  1  0.97930000  0.19250000  0.50650000  1.0 -0.693560345
O  O11  1  0.80750000  0.97930000  0.49350000  1.0 -0.6961302191
O  O12  1  0.19250000  0.02070000  0.49350000  1.0 -0.6961302191
O  O13  1  0.47930000  0.80750000  0.24350000  1.0 -0.693560345
O  O14  1  0.52070000  0.19250000  0.24350000  1.0 -0.6961302191
O  O15  1  0.69250000  0.97930000  0.25650000  1.0 -0.693560345
O  O16  1  0.30750000  0.02070000  0.25650000  1.0 -0.693560345
O  O17  1  0.62220000  0.18770000  0.00972000  1.0 -0.7124102058
O  O18  1  0.37780000  0.81230000  0.00972000  1.0 -0.7124102058
O  O19  1  0.18770000  0.37780000  0.99028000  1.0 -0.7124102058
O  O20  1  0.81230000  0.62220000  0.99028000  1.0 -0.7124102058
O  O21  1  0.87780000  0.18770000  0.74028000  1.0 -0.7124102058
O  O22  1  0.12220000  0.81230000  0.74028000  1.0 -0.7124102058
O  O23  1  0.31230000  0.37780000  0.75972000  1.0 -0.7124102058
O  O24  1  0.68770000  0.62220000  0.75972000  1.0 -0.7124102058
O  O25  1  0.12220000  0.68770000  0.50972000  1.0 -0.7124102058
O  O26  1  0.87780000  0.31230000  0.50972000  1.0 -0.7124102058
O  O27  1  0.68770000  0.87780000  0.49028000  1.0 -0.7124102058
O  O28  1  0.31230000  0.12220000  0.49028000  1.0 -0.7124102058
O  O29  1  0.37780000  0.68770000  0.24028000  1.0 -0.7124102058
O  O30  1  0.62220000  0.31230000  0.24028000  1.0 -0.7124102058
O  O31  1  0.81230000  0.87780000  0.25972000  1.0 -0.7124102058
O  O32  1  0.18770000  0.12220000  0.25972000  1.0 -0.7124102058
O  O33  1  0.59450000  0.27390000  0.07815000  1.0 -0.7262980918
O  O34  1  0.40550000  0.72610000  0.07815000  1.0 -0.7262980918
O  O35  1  0.27390000  0.40550000  0.92185000  1.0 -0.7262980918
O  O36  1  0.72610000  0.59450000  0.92185000  1.0 -0.7262980918
O  O37  1  0.90550000  0.27390000  0.67185000  1.0 -0.7262980918
O  O38  1  0.09450000  0.72610000  0.67185000  1.0 -0.7262980918
O  O39  1  0.22610000  0.40550000  0.82815000  1.0 -0.7262980918
O  O40  1  0.77390000  0.59450000  0.82815000  1.0 -0.7262980918
O  O41  1  0.09450000  0.77390000  0.57815000  1.0 -0.7262980918
O  O42  1  0.90550000  0.22610000  0.57815000  1.0 -0.7262980918
O  O43  1  0.77390000  0.90550000  0.42185000  1.0 -0.7262980918
O  O44  1  0.22610000  0.09450000  0.42185000  1.0 -0.7262980918
O  O45  1  0.40550000  0.77390000  0.17185000  1.0 -0.7262980918
O  O46  1  0.59450000  0.22610000  0.17185000  1.0 -0.7262980918
O  O47  1  0.72610000  0.90550000  0.32815000  1.0 -0.7262980918
O  O48  1  0.27390000  0.09450000  0.32815000  1.0 -0.7262980918
O  O49  1  0.67350000  0.33240000  0.01152000  1.0 -0.7124102058
O  O50  1  0.32650000  0.66760000  0.01152000  1.0 -0.7124102058
O  O51  1  0.33240000  0.32650000  0.98848000  1.0 -0.7124102058
O  O52  1  0.66760000  0.67350000  0.98848000  1.0 -0.7124102058
O  O53  1  0.82650000  0.33240000  0.73848000  1.0 -0.7124102058
O  O54  1  0.17350000  0.66760000  0.73848000  1.0 -0.7124102058
O  O55  1  0.16760000  0.32650000  0.76152000  1.0 -0.7124102058
O  O56  1  0.83240000  0.67350000  0.76152000  1.0 -0.7124102058
O  O57  1  0.17350000  0.83240000  0.51152000  1.0 -0.7124102058
O  O58  1  0.82650000  0.16760000  0.51152000  1.0 -0.7124102058
O  O59  1  0.83240000  0.82650000  0.48848000  1.0 -0.7124102058
O  O60  1  0.16760000  0.17350000  0.48848000  1.0 -0.7124102058
O  O61  1  0.32650000  0.83240000  0.23848000  1.0 -0.7124102058
O  O62  1  0.67350000  0.16760000  0.23848000  1.0 -0.7124102058
O  O63  1  0.66760000  0.82650000  0.26152000  1.0 -0.7124102058
O  O64  1  0.33240000  0.17350000  0.26152000  1.0 -0.7124102058
O  O65  1  0.46230000  0.10380000  0.05382000  1.0 -0.693560345
O  O66  1  0.53770000  0.89620000  0.05382000  1.0 -0.693560345
O  O67  1  0.10380000  0.53770000  0.94618000  1.0 -0.693560345
O  O68  1  0.89620000  0.46230000  0.94618000  1.0 -0.693560345
O  O69  1  0.03770000  0.10380000  0.69618000  1.0 -0.693560345
O  O70  1  0.96230000  0.89620000  0.69618000  1.0 -0.693560345
O  O71  1  0.39620000  0.53770000  0.80382000  1.0 -0.693560345
O  O72  1  0.60380000  0.46230000  0.80382000  1.0 -0.693560345
O  O73  1  0.96230000  0.60380000  0.55382000  1.0 -0.693560345
O  O74  1  0.03770000  0.39620000  0.55382000  1.0 -0.693560345
O  O75  1  0.60380000  0.03770000  0.44618000  1.0 -0.693560345
O  O76  1  0.39620000  0.96230000  0.44618000  1.0 -0.693560345
O  O77  1  0.53770000  0.60380000  0.19618000  1.0 -0.693560345
O  O78  1  0.46230000  0.39620000  0.19618000  1.0 -0.693560345
O  O79  1  0.89620000  0.03770000  0.30382000  1.0 -0.693560345
O  O80  1  0.10380000  0.96230000  0.30382000  1.0 -0.693560345
O  O81  1  0.39130000  0.00170000  0.00225000  1.0 -0.6743821407
O  O82  1  0.60870000  0.99830000  0.00225000  1.0 -0.6797889563
O  O83  1  0.00170000  0.60870000  0.99775000  1.0 -0.6743821407
O  O84  1  0.99830000  0.39130000  0.99775000  1.0 -0.6743821407
O  O85  1  0.10870000  0.00170000  0.74775000  1.0 -0.6743821407
O  O86  1  0.89130000  0.99830000  0.74775000  1.0 -0.6797889563
O  O87  1  0.49830000  0.60870000  0.75225000  1.0 -0.6743821407
O  O88  1  0.50170000  0.39130000  0.75225000  1.0 -0.6743821407
O  O89  1  0.89130000  0.50170000  0.50225000  1.0 -0.6797889563
O  O90  1  0.10870000  0.49830000  0.50225000  1.0 -0.6743821407
O  O91  1  0.50170000  0.10870000  0.49775000  1.0 -0.6743821407
O  O92  1  0.49830000  0.89130000  0.49775000  1.0 -0.6743821407
O  O93  1  0.60870000  0.50170000  0.24775000  1.0 -0.6797889563
O  O94  1  0.39130000  0.49830000  0.24775000  1.0 -0.6743821407
O  O95  1  0.99830000  0.10870000  0.25225000  1.0 -0.6743821407
O  O96  1  0.00170000  0.89130000  0.25225000  1.0 -0.6743821407
O  O97  1  0.30820000  0.10760000  0.04490000  1.0 -0.4981963056
O  O98  1  0.69180000  0.89240000  0.04490000  1.0 -0.4981963056
O  O99  1  0.10760000  0.69180000  0.95510000  1.0 -0.4981963056
O  O100  1  0.89240000  0.30820000  0.95510000  1.0 -0.4981963056
O  O101  1  0.19180000  0.10760000  0.70510000  1.0 -0.4981963056
O  O102  1  0.80820000  0.89240000  0.70510000  1.0 -0.4981963056
O  O103  1  0.39240000  0.69180000  0.79490000  1.0 -0.4981963056
O  O104  1  0.60760000  0.30820000  0.79490000  1.0 -0.4981963056
O  O105  1  0.80820000  0.60760000  0.54490000  1.0 -0.4981963056
O  O106  1  0.19180000  0.39240000  0.54490000  1.0 -0.4981963056
O  O107  1  0.60760000  0.19180000  0.45510000  1.0 -0.4981963056
O  O108  1  0.39240000  0.80820000  0.45510000  1.0 -0.4981963056
O  O109  1  0.69180000  0.60760000  0.20510000  1.0 -0.4981963056
O  O110  1  0.30820000  0.39240000  0.20510000  1.0 -0.4981963056
O  O111  1  0.89240000  0.19180000  0.29490000  1.0 -0.4981963056
O  O112  1  0.10760000  0.80820000  0.29490000  1.0 -0.4981963056
O  O113  1  0.39710000  0.14980000  0.98065000  1.0 -0.6797889563
O  O114  1  0.60290000  0.85020000  0.98065000  1.0 -0.6797889563
O  O115  1  0.14980000  0.60290000  0.01935000  1.0 -0.6797889563
O  O116  1  0.85020000  0.39710000  0.01935000  1.0 -0.6797889563
O  O117  1  0.10290000  0.14980000  0.76935000  1.0 -0.6797889563
O  O118  1  0.89710000  0.85020000  0.76935000  1.0 -0.6797889563
O  O119  1  0.35020000  0.60290000  0.73065000  1.0 -0.6797889563
O  O120  1  0.64980000  0.39710000  0.73065000  1.0 -0.6797889563
O  O121  1  0.89710000  0.64980000  0.48065000  1.0 -0.6797889563
O  O122  1  0.10290000  0.35020000  0.48065000  1.0 -0.6797889563
O  O123  1  0.64980000  0.10290000  0.51935000  1.0 -0.6797889563
O  O124  1  0.35020000  0.89710000  0.51935000  1.0 -0.6797889563
O  O125  1  0.60290000  0.64980000  0.26935000  1.0 -0.6797889563
O  O126  1  0.39710000  0.35020000  0.26935000  1.0 -0.6797889563
O  O127  1  0.85020000  0.10290000  0.23065000  1.0 -0.6797889563
O  O128  1  0.14980000  0.89710000  0.23065000  1.0 -0.6797889563
O  O129  1  0.62380000  0.06910000  0.10049000  1.0 -0.6961302191
O  O130  1  0.37620000  0.93090000  0.10049000  1.0 -0.6961302191
O  O131  1  0.06910000  0.37620000  0.89951000  1.0 -0.6961302191
O  O132  1  0.93090000  0.62380000  0.89951000  1.0 -0.6961302191
O  O133  1  0.87620000  0.06910000  0.64951000  1.0 -0.6961302191
O  O134  1  0.12380000  0.93090000  0.64951000  1.0 -0.6961302191
O  O135  1  0.43090000  0.37620000  0.85049000  1.0 -0.6961302191
O  O136  1  0.56910000  0.62380000  0.85049000  1.0 -0.6961302191
O  O137  1  0.12380000  0.56910000  0.60049000  1.0 -0.6961302191
O  O138  1  0.87620000  0.43090000  0.60049000  1.0 -0.6961302191
O  O139  1  0.56910000  0.87620000  0.39951000  1.0 -0.6961302191
O  O140  1  0.43090000  0.12380000  0.39951000  1.0 -0.6961302191
O  O141  1  0.37620000  0.56910000  0.14951000  1.0 -0.6961302191
O  O142  1  0.62380000  0.43090000  0.14951000  1.0 -0.6961302191
O  O143  1  0.93090000  0.87620000  0.35049000  1.0 -0.6961302191
O  O144  1  0.06910000  0.12380000  0.35049000  1.0 -0.6961302191
O  O145  1  0.76590000  0.01900000  0.07937000  1.0 -0.5295217353
O  O146  1  0.23410000  0.98100000  0.07937000  1.0 -0.5295217353
O  O147  1  0.01900000  0.23410000  0.92063000  1.0 -0.5295217353
O  O148  1  0.98100000  0.76590000  0.92063000  1.0 -0.5295217353
O  O149  1  0.73410000  0.01900000  0.67063000  1.0 -0.5295217353
O  O150  1  0.26590000  0.98100000  0.67063000  1.0 -0.5295217353
O  O151  1  0.48100000  0.23410000  0.82937000  1.0 -0.5295217353
O  O152  1  0.51900000  0.76590000  0.82937000  1.0 -0.5295217353
O  O153  1  0.26590000  0.51900000  0.57937000  1.0 -0.5295217353
O  O154  1  0.73410000  0.48100000  0.57937000  1.0 -0.5295217353
O  O155  1  0.51900000  0.73410000  0.42063000  1.0 -0.5295217353
O  O156  1  0.48100000  0.26590000  0.42063000  1.0 -0.5295217353
O  O157  1  0.23410000  0.51900000  0.17063000  1.0 -0.5295217353
O  O158  1  0.76590000  0.48100000  0.17063000  1.0 -0.5295217353
O  O159  1  0.98100000  0.73410000  0.32937000  1.0 -0.5295217353
O  O160  1  0.01900000  0.26590000  0.32937000  1.0 -0.5295217353
O  O161  1  0.75000000  0.15880000  0.11205000  1.0 -0.6797889563
O  O162  1  0.25000000  0.84120000  0.11205000  1.0 -0.6797889563
O  O163  1  0.15880000  0.25000000  0.88795000  1.0 -0.6743821407
O  O164  1  0.84120000  0.75000000  0.88795000  1.0 -0.6797889563
O  O165  1  0.75000000  0.15880000  0.63795000  1.0 -0.6797889563
O  O166  1  0.25000000  0.84120000  0.63795000  1.0 -0.6797889563
O  O167  1  0.34120000  0.25000000  0.86205000  1.0 -0.6743821407
O  O168  1  0.65880000  0.75000000  0.86205000  1.0 -0.6743821407
O  O169  1  0.25000000  0.65880000  0.61205000  1.0 -0.6797889563
O  O170  1  0.75000000  0.34120000  0.61205000  1.0 -0.6797889563
O  O171  1  0.65880000  0.75000000  0.38795000  1.0 -0.6797889563
O  O172  1  0.34120000  0.25000000  0.38795000  1.0 -0.6797889563
O  O173  1  0.25000000  0.65880000  0.13795000  1.0 -0.6743821407
O  O174  1  0.75000000  0.34120000  0.13795000  1.0 -0.6797889563
O  O175  1  0.84120000  0.75000000  0.36205000  1.0 -0.6797889563
O  O176  1  0.15880000  0.25000000  0.36205000  1.0 -0.6797889563
O  O177  1  0.72600000  0.03180000  0.15979000  1.0 -0.6797889563
O  O178  1  0.27400000  0.96820000  0.15979000  1.0 -0.6797889563
O  O179  1  0.03180000  0.27400000  0.84021000  1.0 -0.6797889563
O  O180  1  0.96820000  0.72600000  0.84021000  1.0 -0.6797889563
O  O181  1  0.77400000  0.03180000  0.59021000  1.0 -0.6797889563
O  O182  1  0.22600000  0.96820000  0.59021000  1.0 -0.6797889563
O  O183  1  0.46820000  0.27400000  0.90979000  1.0 -0.6797889563
O  O184  1  0.53180000  0.72600000  0.90979000  1.0 -0.6797889563
O  O185  1  0.22600000  0.53180000  0.65979000  1.0 -0.6797889563
O  O186  1  0.77400000  0.46820000  0.65979000  1.0 -0.6797889563
O  O187  1  0.53180000  0.77400000  0.34021000  1.0 -0.6797889563
O  O188  1  0.46820000  0.22600000  0.34021000  1.0 -0.6797889563
O  O189  1  0.27400000  0.53180000  0.09021000  1.0 -0.6797889563
O  O190  1  0.72600000  0.46820000  0.09021000  1.0 -0.6797889563
O  O191  1  0.96820000  0.77400000  0.40979000  1.0 -0.6797889563
O  O192  1  0.03180000  0.22600000  0.40979000  1.0 -0.6797889563
