# DDEC6 charges by PACMAN v1.1 (https://github.com/mtap-research/PACMAN-charge/)
data_2017[ZnSi][sql]2[FSR]1
_chemical_formula_sum              "Zn4 Si4 H64 C80 S8 N16 F24"
_cell_length_a       10.092
_cell_length_b       19.277
_cell_length_c       15.171
_cell_angle_alpha    90
_cell_angle_beta     90
_cell_angle_gamma    90

_symmetry_space_group_name_H-M    "P 1"
_symmetry_Int_Tables_number       1

loop_
  _symmetry_equiv_pos_as_xyz
  'x, y, z'

loop_
  _atom_site_type_symbol
  _atom_site_label
  _atom_site_symmetry_multiplicity
  _atom_site_fract_x
  _atom_site_fract_y
  _atom_site_fract_z
  _atom_site_occupancy
  _atom_site_charge
Zn  Zn1       1.0  0.00000  0.50000  0.75000  1.0000 0.7534163053
Zn  Zn2       1.0  0.00000  0.50000  0.25000  1.0000 0.7550419028
Zn  Zn3       1.0  0.50000  0.00000  0.25000  1.0000 0.7534163053
Zn  Zn4       1.0  0.50000  0.00000  0.75000  1.0000 0.7534163053
Si  Si1       1.0  0.00000  0.50000  0.50000  1.0000 1.715300029
Si  Si2       1.0  0.00000  0.50000  0.00000  1.0000 1.715300029
Si  Si3       1.0  0.50000  0.00000  0.00000  1.0000 1.7100639994
Si  Si4       1.0  0.50000  0.00000  0.50000  1.0000 1.7100639994
H   H1        1.0  0.90500  0.62800  0.85450  1.0000 0.1227287388
H   H2        1.0  0.72860  0.70580  0.85970  1.0000 0.1415480695
H   H3        1.0  0.57720  0.61210  0.64160  1.0000 0.1415480695
H   H4        1.0  0.76020  0.53800  0.64210  1.0000 0.1227287388
H   H5        1.0  0.09500  0.37200  0.85450  1.0000 0.1227287388
H   H6        1.0  0.27140  0.29420  0.85970  1.0000 0.1415480695
H   H7        1.0  0.42280  0.38790  0.64160  1.0000 0.1415480695
H   H8        1.0  0.23980  0.46200  0.64210  1.0000 0.1227287388
H   H9        1.0  0.09500  0.62800  0.64550  1.0000 0.1227287388
H   H10       1.0  0.27140  0.70580  0.64030  1.0000 0.1415480695
H   H11       1.0  0.42280  0.61210  0.85840  1.0000 0.1415480695
H   H12       1.0  0.23980  0.53800  0.85790  1.0000 0.1227287388
H   H13       1.0  0.90500  0.37200  0.64550  1.0000 0.1227287388
H   H14       1.0  0.72860  0.29420  0.64030  1.0000 0.1415480695
H   H15       1.0  0.57720  0.38790  0.85840  1.0000 0.1415480695
H   H16       1.0  0.76020  0.46200  0.85790  1.0000 0.1227287388
H   H17       1.0  0.09500  0.37200  0.14550  1.0000 0.1227287388
H   H18       1.0  0.27140  0.29420  0.14030  1.0000 0.1415480695
H   H19       1.0  0.42280  0.38790  0.35840  1.0000 0.1415480695
H   H20       1.0  0.23980  0.46200  0.35790  1.0000 0.1227287388
H   H21       1.0  0.90500  0.62800  0.14550  1.0000 0.1227287388
H   H22       1.0  0.72860  0.70580  0.14030  1.0000 0.1415480695
H   H23       1.0  0.57720  0.61210  0.35840  1.0000 0.1415480695
H   H24       1.0  0.76020  0.53800  0.35790  1.0000 0.1227287388
H   H25       1.0  0.90500  0.37200  0.35450  1.0000 0.1227287388
H   H26       1.0  0.72860  0.29420  0.35970  1.0000 0.1415480695
H   H27       1.0  0.57720  0.38790  0.14160  1.0000 0.1415480695
H   H28       1.0  0.76020  0.46200  0.14210  1.0000 0.1227287388
H   H29       1.0  0.09500  0.62800  0.35450  1.0000 0.1227287388
H   H30       1.0  0.27140  0.70580  0.35970  1.0000 0.1415480695
H   H31       1.0  0.42280  0.61210  0.14160  1.0000 0.1415480695
H   H32       1.0  0.23980  0.53800  0.14210  1.0000 0.1227287388
H   H33       1.0  0.40500  0.12800  0.35450  1.0000 0.1227287388
H   H34       1.0  0.22860  0.20580  0.35970  1.0000 0.1415480695
H   H35       1.0  0.07720  0.11210  0.14160  1.0000 0.1415480695
H   H36       1.0  0.26020  0.03800  0.14210  1.0000 0.1227287388
H   H37       1.0  0.59500  0.87200  0.35450  1.0000 0.1227287388
H   H38       1.0  0.77140  0.79420  0.35970  1.0000 0.1415480695
H   H39       1.0  0.92280  0.88790  0.14160  1.0000 0.1415480695
H   H40       1.0  0.73980  0.96200  0.14210  1.0000 0.1227287388
H   H41       1.0  0.59500  0.12800  0.14550  1.0000 0.1227287388
H   H42       1.0  0.77140  0.20580  0.14030  1.0000 0.1415480695
H   H43       1.0  0.92280  0.11210  0.35840  1.0000 0.1415480695
H   H44       1.0  0.73980  0.03800  0.35790  1.0000 0.1227287388
H   H45       1.0  0.40500  0.87200  0.14550  1.0000 0.1227287388
H   H46       1.0  0.22860  0.79420  0.14030  1.0000 0.1415480695
H   H47       1.0  0.07720  0.88790  0.35840  1.0000 0.1415480695
H   H48       1.0  0.26020  0.96200  0.35790  1.0000 0.1227287388
H   H49       1.0  0.59500  0.87200  0.64550  1.0000 0.1227287388
H   H50       1.0  0.77140  0.79420  0.64030  1.0000 0.1415480695
H   H51       1.0  0.92280  0.88790  0.85840  1.0000 0.1415480695
H   H52       1.0  0.73980  0.96200  0.85790  1.0000 0.1227287388
H   H53       1.0  0.40500  0.12800  0.64550  1.0000 0.1227287388
H   H54       1.0  0.22860  0.20580  0.64030  1.0000 0.1415480695
H   H55       1.0  0.07720  0.11210  0.85840  1.0000 0.1415480695
H   H56       1.0  0.26020  0.03800  0.85790  1.0000 0.1227287388
H   H57       1.0  0.40500  0.87200  0.85450  1.0000 0.1227287388
H   H58       1.0  0.22860  0.79420  0.85970  1.0000 0.1415480695
H   H59       1.0  0.07720  0.88790  0.64160  1.0000 0.1415480695
H   H60       1.0  0.26020  0.96200  0.64210  1.0000 0.1227287388
H   H61       1.0  0.59500  0.12800  0.85450  1.0000 0.1227287388
H   H62       1.0  0.77140  0.20580  0.85970  1.0000 0.1415480695
H   H63       1.0  0.92280  0.11210  0.64160  1.0000 0.1415480695
H   H64       1.0  0.73980  0.03800  0.64210  1.0000 0.1227287388
C   C1        1.0  0.83760  0.62511  0.81087  1.0000 0.1020149384
C   C2        1.0  0.73280  0.67156  0.81472  1.0000 -0.2060379014
C   C3        1.0  0.63400  0.66667  0.75093  1.0000 0.1020149384
C   C4        1.0  0.64350  0.61632  0.68572  1.0000 -0.192102382
C   C5        1.0  0.75270  0.57232  0.68674  1.0000 0.1020149384
C   C6        1.0  0.16240  0.37489  0.81087  1.0000 0.1020149384
C   C7        1.0  0.26720  0.32844  0.81472  1.0000 -0.2060379014
C   C8        1.0  0.36600  0.33333  0.75093  1.0000 0.1020149384
C   C9        1.0  0.35650  0.38368  0.68572  1.0000 -0.192102382
C   C10       1.0  0.24730  0.42768  0.68674  1.0000 0.1020149384
C   C11       1.0  0.16240  0.62511  0.68913  1.0000 0.1020149384
C   C12       1.0  0.26720  0.67156  0.68528  1.0000 -0.2060379014
C   C13       1.0  0.36600  0.66667  0.74907  1.0000 0.1020149384
C   C14       1.0  0.35650  0.61632  0.81428  1.0000 -0.192102382
C   C15       1.0  0.24730  0.57232  0.81326  1.0000 0.1020149384
C   C16       1.0  0.83760  0.37489  0.68913  1.0000 0.1020149384
C   C17       1.0  0.73280  0.32844  0.68528  1.0000 -0.2060379014
C   C18       1.0  0.63400  0.33333  0.74907  1.0000 0.1020149384
C   C19       1.0  0.64350  0.38368  0.81428  1.0000 -0.192102382
C   C20       1.0  0.75270  0.42768  0.81326  1.0000 0.1020149384
C   C21       1.0  0.16240  0.37489  0.18913  1.0000 0.1020149384
C   C22       1.0  0.26720  0.32844  0.18528  1.0000 -0.2060379014
C   C23       1.0  0.36600  0.33333  0.24907  1.0000 0.1020149384
C   C24       1.0  0.35650  0.38368  0.31428  1.0000 -0.192102382
C   C25       1.0  0.24730  0.42768  0.31326  1.0000 0.1020149384
C   C26       1.0  0.83760  0.62511  0.18913  1.0000 0.1020149384
C   C27       1.0  0.73280  0.67156  0.18528  1.0000 -0.2060379014
C   C28       1.0  0.63400  0.66667  0.24907  1.0000 0.1020149384
C   C29       1.0  0.64350  0.61632  0.31428  1.0000 -0.192102382
C   C30       1.0  0.75270  0.57232  0.31326  1.0000 0.1020149384
C   C31       1.0  0.83760  0.37489  0.31087  1.0000 0.1020149384
C   C32       1.0  0.73280  0.32844  0.31472  1.0000 -0.2060379014
C   C33       1.0  0.63400  0.33333  0.25093  1.0000 0.1020149384
C   C34       1.0  0.64350  0.38368  0.18572  1.0000 -0.192102382
C   C35       1.0  0.75270  0.42768  0.18674  1.0000 0.1020149384
C   C36       1.0  0.16240  0.62511  0.31087  1.0000 0.1020149384
C   C37       1.0  0.26720  0.67156  0.31472  1.0000 -0.2060379014
C   C38       1.0  0.36600  0.66667  0.25093  1.0000 0.1020149384
C   C39       1.0  0.35650  0.61632  0.18572  1.0000 -0.192102382
C   C40       1.0  0.24730  0.57232  0.18674  1.0000 0.1020149384
C   C41       1.0  0.33760  0.12511  0.31087  1.0000 0.1020149384
C   C42       1.0  0.23280  0.17156  0.31472  1.0000 -0.2060379014
C   C43       1.0  0.13400  0.16670  0.25093  1.0000 0.1020149384
C   C44       1.0  0.14350  0.11632  0.18572  1.0000 -0.192102382
C   C45       1.0  0.25270  0.07232  0.18674  1.0000 0.1020149384
C   C46       1.0  0.66240  0.87489  0.31087  1.0000 0.1020149384
C   C47       1.0  0.76720  0.82844  0.31472  1.0000 -0.2060379014
C   C48       1.0  0.86600  0.83330  0.25093  1.0000 0.1020149384
C   C49       1.0  0.85650  0.88368  0.18572  1.0000 -0.192102382
C   C50       1.0  0.74730  0.92768  0.18674  1.0000 0.1020149384
C   C51       1.0  0.66240  0.12511  0.18913  1.0000 0.1020149384
C   C52       1.0  0.76720  0.17156  0.18528  1.0000 -0.2060379014
C   C53       1.0  0.86600  0.16670  0.24907  1.0000 0.1020149384
C   C54       1.0  0.85650  0.11632  0.31428  1.0000 -0.192102382
C   C55       1.0  0.74730  0.07232  0.31326  1.0000 0.1020149384
C   C56       1.0  0.33760  0.87489  0.18913  1.0000 0.1020149384
C   C57       1.0  0.23280  0.82844  0.18528  1.0000 -0.2060379014
C   C58       1.0  0.13400  0.83330  0.24907  1.0000 0.1020149384
C   C59       1.0  0.14350  0.88368  0.31428  1.0000 -0.192102382
C   C60       1.0  0.25270  0.92768  0.31326  1.0000 0.1020149384
C   C61       1.0  0.66240  0.87489  0.68913  1.0000 0.1020149384
C   C62       1.0  0.76720  0.82844  0.68528  1.0000 -0.2060379014
C   C63       1.0  0.86600  0.83330  0.74907  1.0000 0.1020149384
C   C64       1.0  0.85650  0.88368  0.81428  1.0000 -0.192102382
C   C65       1.0  0.74730  0.92768  0.81326  1.0000 0.1020149384
C   C66       1.0  0.33760  0.12511  0.68913  1.0000 0.1020149384
C   C67       1.0  0.23280  0.17156  0.68528  1.0000 -0.2060379014
C   C68       1.0  0.13400  0.16670  0.74907  1.0000 0.1020149384
C   C69       1.0  0.14350  0.11632  0.81428  1.0000 -0.192102382
C   C70       1.0  0.25270  0.07232  0.81326  1.0000 0.1020149384
C   C71       1.0  0.33760  0.87489  0.81087  1.0000 0.1020149384
C   C72       1.0  0.23280  0.82844  0.81472  1.0000 -0.2060379014
C   C73       1.0  0.13400  0.83330  0.75093  1.0000 0.1020149384
C   C74       1.0  0.14350  0.88368  0.68572  1.0000 -0.192102382
C   C75       1.0  0.25270  0.92768  0.68674  1.0000 0.1020149384
C   C76       1.0  0.66240  0.12511  0.81087  1.0000 0.1020149384
C   C77       1.0  0.76720  0.17156  0.81472  1.0000 -0.2060379014
C   C78       1.0  0.86600  0.16670  0.75093  1.0000 0.1020149384
C   C79       1.0  0.85650  0.11632  0.68572  1.0000 -0.192102382
C   C80       1.0  0.74730  0.07232  0.68674  1.0000 0.1020149384
S   S1        1.0  0.50000  0.72631  0.75000  1.0000 0.0034846382
S   S2        1.0  0.50000  0.27369  0.75000  1.0000 0.0034846382
S   S3        1.0  0.50000  0.27369  0.25000  1.0000 0.0034846382
S   S4        1.0  0.50000  0.72631  0.25000  1.0000 0.0034846382
S   S5        1.0  0.00000  0.22631  0.25000  1.0000 0.0034846382
S   S6        1.0  0.00000  0.77369  0.25000  1.0000 0.0034846382
S   S7        1.0  0.00000  0.77369  0.75000  1.0000 0.0034846382
S   S8        1.0  0.00000  0.22631  0.75000  1.0000 0.0034846382
N   N1        1.0  0.84801  0.57638  0.74849  1.0000 -0.2393719862
N   N2        1.0  0.15199  0.42362  0.74849  1.0000 -0.2393719862
N   N3        1.0  0.15199  0.57638  0.75151  1.0000 -0.2393719862
N   N4        1.0  0.84801  0.42362  0.75151  1.0000 -0.2393719862
N   N5        1.0  0.15199  0.42362  0.25151  1.0000 -0.2393719862
N   N6        1.0  0.84801  0.57638  0.25151  1.0000 -0.2393719862
N   N7        1.0  0.84801  0.42362  0.24849  1.0000 -0.2393719862
N   N8        1.0  0.15199  0.57638  0.24849  1.0000 -0.2393719862
N   N9        1.0  0.34801  0.07638  0.24849  1.0000 -0.2393719862
N   N10       1.0  0.65199  0.92362  0.24849  1.0000 -0.2393719862
N   N11       1.0  0.65199  0.07638  0.25151  1.0000 -0.2393719862
N   N12       1.0  0.34801  0.92362  0.25151  1.0000 -0.2393719862
N   N13       1.0  0.65199  0.92362  0.75151  1.0000 -0.2393719862
N   N14       1.0  0.34801  0.07638  0.75151  1.0000 -0.2393719862
N   N15       1.0  0.34801  0.92362  0.74849  1.0000 -0.2393719862
N   N16       1.0  0.65199  0.07638  0.74849  1.0000 -0.2393719862
F   F1        1.0  0.00000  0.50000  0.61253  1.0000 -0.5155545418
F   F2        1.0  0.00000  0.50000  0.88747  1.0000 -0.5148510282
F   F3        1.0  0.00000  0.50000  0.38747  1.0000 -0.5155545418
F   F4        1.0  0.00000  0.50000  0.11253  1.0000 -0.5155545418
F   F5        1.0  0.16260  0.51728  0.50000  1.0000 -0.5577653294
F   F6        1.0  0.03290  0.41561  0.50000  1.0000 -0.5577653294
F   F7        1.0  0.83740  0.48272  0.50000  1.0000 -0.5577653294
F   F8        1.0  0.96710  0.58439  0.50000  1.0000 -0.5577653294
F   F9        1.0  0.83740  0.51728  0.00000  1.0000 -0.5577653294
F   F10       1.0  0.96710  0.41561  0.00000  1.0000 -0.5577653294
F   F11       1.0  0.16260  0.48272  0.00000  1.0000 -0.5577653294
F   F12       1.0  0.03290  0.58439  0.00000  1.0000 -0.5577653294
F   F13       1.0  0.50000  0.00000  0.11253  1.0000 -0.5155545418
F   F14       1.0  0.50000  0.00000  0.38747  1.0000 -0.5155545418
F   F15       1.0  0.50000  0.00000  0.88747  1.0000 -0.5148510282
F   F16       1.0  0.50000  0.00000  0.61253  1.0000 -0.5155545418
F   F17       1.0  0.66260  0.01728  0.00000  1.0000 -0.5577653294
F   F18       1.0  0.53290  0.91561  0.00000  1.0000 -0.5577653294
F   F19       1.0  0.33740  0.98272  0.00000  1.0000 -0.5577653294
F   F20       1.0  0.46710  0.08439  0.00000  1.0000 -0.5577653294
F   F21       1.0  0.33740  0.01728  0.50000  1.0000 -0.5577653294
F   F22       1.0  0.46710  0.91561  0.50000  1.0000 -0.5577653294
F   F23       1.0  0.66260  0.98272  0.50000  1.0000 -0.5577653294
F   F24       1.0  0.53290  0.08439  0.50000  1.0000 -0.5577653294
