# DDEC6 charges by PACMAN v1.1 (https://github.com/mtap-research/PACMAN-charge/)
data_ja0660047si20060818_060458_ASR_pacman
_symmetry_space_group_name_H-M   'P 1'
_cell_length_a   12.38400000
_cell_length_b   12.38400000
_cell_length_c   22.76500000
_cell_angle_alpha   90.00000000
_cell_angle_beta   90.00000000
_cell_angle_gamma   90.00000000
_symmetry_Int_Tables_number   1
_chemical_formula_structural   ZnH12(C11N3)2
_chemical_formula_sum   'Zn4 H48 C88 N24'
_cell_volume   3491.31907584
_cell_formula_units_Z   4
loop_
 _symmetry_equiv_pos_site_id
 _symmetry_equiv_pos_as_xyz
  1  'x, y, z'
loop_
 _atom_site_type_symbol
 _atom_site_label
 _atom_site_symmetry_multiplicity
 _atom_site_fract_x
 _atom_site_fract_y
 _atom_site_fract_z
 _atom_site_occupancy
 _atom_site_charge
Zn  Zn1  1  0.00000000  0.00000000  0.00000000  1.0 0.7077433167
Zn  Zn2  1  0.00000000  0.00000000  0.50000000  1.0 0.7077433167
Zn  Zn3  1  0.50000000  0.50000000  0.50000000  1.0 0.7077433167
Zn  Zn4  1  0.50000000  0.50000000  0.00000000  1.0 0.7077433167
H  H65  1  0.68080000  0.95140000  0.00000000  1.0 0.1198980955
H  H66  1  0.04860000  0.68080000  0.00000000  1.0 0.1198980955
H  H67  1  0.31920000  0.04860000  0.00000000  1.0 0.1198980955
H  H68  1  0.95140000  0.31920000  0.00000000  1.0 0.1198980955
H  H69  1  0.31920000  0.95140000  0.50000000  1.0 0.1198980955
H  H70  1  0.95140000  0.68080000  0.50000000  1.0 0.1198980955
H  H71  1  0.68080000  0.04860000  0.50000000  1.0 0.1198980955
H  H72  1  0.04860000  0.31920000  0.50000000  1.0 0.1198980955
H  H73  1  0.18080000  0.45140000  0.50000000  1.0 0.1198980955
H  H74  1  0.54860000  0.18080000  0.50000000  1.0 0.1198980955
H  H75  1  0.81920000  0.54860000  0.50000000  1.0 0.1198980955
H  H76  1  0.45140000  0.81920000  0.50000000  1.0 0.1198980955
H  H77  1  0.81920000  0.45140000  0.00000000  1.0 0.1198980955
H  H78  1  0.45140000  0.18080000  0.00000000  1.0 0.1198980955
H  H79  1  0.18080000  0.54860000  0.00000000  1.0 0.1198980955
H  H80  1  0.54860000  0.81920000  0.00000000  1.0 0.1198980955
H  H1  1  0.84690000  0.96100000  0.89520000  0.5 0.1001873693
H  H2  1  0.03900000  0.84690000  0.89520000  0.5 0.1001873693
H  H3  1  0.15310000  0.03900000  0.89520000  0.5 0.1001873693
H  H4  1  0.96100000  0.15310000  0.89520000  0.5 0.1001873693
H  H5  1  0.15310000  0.96100000  0.39520000  0.5 0.1001873693
H  H6  1  0.96100000  0.84690000  0.39520000  0.5 0.1001873693
H  H7  1  0.84690000  0.03900000  0.39520000  0.5 0.1001873693
H  H8  1  0.03900000  0.15310000  0.39520000  0.5 0.1001873693
H  H9  1  0.15310000  0.03900000  0.10480000  0.5 0.1001873693
H  H10  1  0.96100000  0.15310000  0.10480000  0.5 0.1001873693
H  H11  1  0.84690000  0.96100000  0.10480000  0.5 0.1001873693
H  H12  1  0.03900000  0.84690000  0.10480000  0.5 0.1001873693
H  H13  1  0.84690000  0.03900000  0.60480000  0.5 0.1001873693
H  H14  1  0.03900000  0.15310000  0.60480000  0.5 0.1001873693
H  H15  1  0.15310000  0.96100000  0.60480000  0.5 0.1001873693
H  H16  1  0.96100000  0.84690000  0.60480000  0.5 0.1001873693
H  H17  1  0.34690000  0.46100000  0.39520000  0.5 0.1001873693
H  H18  1  0.53900000  0.34690000  0.39520000  0.5 0.1001873693
H  H19  1  0.65310000  0.53900000  0.39520000  0.5 0.1001873693
H  H20  1  0.46100000  0.65310000  0.39520000  0.5 0.1001873693
H  H21  1  0.65310000  0.46100000  0.89520000  0.5 0.1001873693
H  H22  1  0.46100000  0.34690000  0.89520000  0.5 0.1001873693
H  H23  1  0.34690000  0.53900000  0.89520000  0.5 0.1001873693
H  H24  1  0.53900000  0.65310000  0.89520000  0.5 0.1001873693
H  H25  1  0.65310000  0.53900000  0.60480000  0.5 0.1001873693
H  H26  1  0.46100000  0.65310000  0.60480000  0.5 0.1001873693
H  H27  1  0.34690000  0.46100000  0.60480000  0.5 0.1001873693
H  H28  1  0.53900000  0.34690000  0.60480000  0.5 0.1001873693
H  H29  1  0.34690000  0.53900000  0.10480000  0.5 0.1001873693
H  H30  1  0.53900000  0.65310000  0.10480000  0.5 0.1001873693
H  H31  1  0.65310000  0.46100000  0.10480000  0.5 0.1001873693
H  H32  1  0.46100000  0.34690000  0.10480000  0.5 0.1001873693
H  H33  1  0.84160000  0.96350000  0.79610000  0.5 0.1001873693
H  H34  1  0.03650000  0.84160000  0.79610000  0.5 0.1001873693
H  H35  1  0.15840000  0.03650000  0.79610000  0.5 0.1001873693
H  H36  1  0.96350000  0.15840000  0.79610000  0.5 0.1001873693
H  H37  1  0.15840000  0.96350000  0.29610000  0.5 0.1001873693
H  H38  1  0.96350000  0.84160000  0.29610000  0.5 0.1001873693
H  H39  1  0.84160000  0.03650000  0.29610000  0.5 0.1001873693
H  H40  1  0.03650000  0.15840000  0.29610000  0.5 0.1001873693
H  H41  1  0.15840000  0.03650000  0.20390000  0.5 0.1001873693
H  H42  1  0.96350000  0.15840000  0.20390000  0.5 0.1001873693
H  H43  1  0.84160000  0.96350000  0.20390000  0.5 0.1001873693
H  H44  1  0.03650000  0.84160000  0.20390000  0.5 0.1001873693
H  H45  1  0.84160000  0.03650000  0.70390000  0.5 0.1001873693
H  H46  1  0.03650000  0.15840000  0.70390000  0.5 0.1001873693
H  H47  1  0.15840000  0.96350000  0.70390000  0.5 0.1001873693
H  H48  1  0.96350000  0.84160000  0.70390000  0.5 0.1001873693
H  H49  1  0.34160000  0.46350000  0.29610000  0.5 0.1001873693
H  H50  1  0.53650000  0.34160000  0.29610000  0.5 0.1001873693
H  H51  1  0.65840000  0.53650000  0.29610000  0.5 0.1001873693
H  H52  1  0.46350000  0.65840000  0.29610000  0.5 0.1001873693
H  H53  1  0.65840000  0.46350000  0.79610000  0.5 0.1001873693
H  H54  1  0.46350000  0.34160000  0.79610000  0.5 0.1001873693
H  H55  1  0.34160000  0.53650000  0.79610000  0.5 0.1001873693
H  H56  1  0.53650000  0.65840000  0.79610000  0.5 0.1001873693
H  H57  1  0.65840000  0.53650000  0.70390000  0.5 0.1001873693
H  H58  1  0.46350000  0.65840000  0.70390000  0.5 0.1001873693
H  H59  1  0.34160000  0.46350000  0.70390000  0.5 0.1001873693
H  H60  1  0.53650000  0.34160000  0.70390000  0.5 0.1001873693
H  H61  1  0.34160000  0.53650000  0.20390000  0.5 0.1001873693
H  H62  1  0.53650000  0.65840000  0.20390000  0.5 0.1001873693
H  H63  1  0.65840000  0.46350000  0.20390000  0.5 0.1001873693
H  H64  1  0.46350000  0.34160000  0.20390000  0.5 0.1001873693
C  C65  1  0.00000000  0.00000000  0.78190000  1.0 0.0337916033
C  C66  1  0.00000000  0.00000000  0.28190000  1.0 0.0337916033
C  C67  1  0.00000000  0.00000000  0.21810000  1.0 0.0337916033
C  C68  1  0.00000000  0.00000000  0.71810000  1.0 0.0337916033
C  C69  1  0.50000000  0.50000000  0.28190000  1.0 0.0337916033
C  C70  1  0.50000000  0.50000000  0.78190000  1.0 0.0337916033
C  C71  1  0.50000000  0.50000000  0.71810000  1.0 0.0337916033
C  C72  1  0.50000000  0.50000000  0.21810000  1.0 0.0337916033
C  C73  1  0.77270000  0.13440000  0.00000000  1.0 0.2751021606
C  C74  1  0.86560000  0.77270000  0.00000000  1.0 0.2751021606
C  C75  1  0.22730000  0.86560000  0.00000000  1.0 0.2751021606
C  C76  1  0.13440000  0.22730000  0.00000000  1.0 0.2751021606
C  C77  1  0.22730000  0.13440000  0.50000000  1.0 0.2751021606
C  C78  1  0.13440000  0.77270000  0.50000000  1.0 0.2751021606
C  C79  1  0.77270000  0.86560000  0.50000000  1.0 0.2751021606
C  C80  1  0.86560000  0.22730000  0.50000000  1.0 0.2751021606
C  C81  1  0.27270000  0.63440000  0.50000000  1.0 0.2751021606
C  C82  1  0.36560000  0.27270000  0.50000000  1.0 0.2751021606
C  C83  1  0.72730000  0.36560000  0.50000000  1.0 0.2751021606
C  C84  1  0.63440000  0.72730000  0.50000000  1.0 0.2751021606
C  C85  1  0.72730000  0.63440000  0.00000000  1.0 0.2751021606
C  C86  1  0.63440000  0.27270000  0.00000000  1.0 0.2751021606
C  C87  1  0.27270000  0.36560000  0.00000000  1.0 0.2751021606
C  C88  1  0.36560000  0.72730000  0.00000000  1.0 0.2751021606
C  C89  1  0.66460000  0.16460000  0.00000000  1.0 -0.2096458079
C  C90  1  0.83540000  0.66460000  0.00000000  1.0 -0.2096458079
C  C91  1  0.33540000  0.83540000  0.00000000  1.0 -0.2096458079
C  C92  1  0.16460000  0.33540000  0.00000000  1.0 -0.2096458079
C  C93  1  0.33540000  0.16460000  0.50000000  1.0 -0.2096458079
C  C94  1  0.16460000  0.66460000  0.50000000  1.0 -0.2096458079
C  C95  1  0.66460000  0.83540000  0.50000000  1.0 -0.2096458079
C  C96  1  0.83540000  0.33540000  0.50000000  1.0 -0.2096458079
C  C97  1  0.58150000  0.08150000  0.00000000  1.0 0.1001873693
C  C98  1  0.91850000  0.58150000  0.00000000  1.0 0.1001873693
C  C99  1  0.41850000  0.91850000  0.00000000  1.0 0.1001873693
C  C100  1  0.08150000  0.41850000  0.00000000  1.0 0.1001873693
C  C101  1  0.41850000  0.08150000  0.50000000  1.0 0.1054994014
C  C102  1  0.08150000  0.58150000  0.50000000  1.0 0.1054994014
C  C103  1  0.58150000  0.91850000  0.50000000  1.0 0.1054994014
C  C104  1  0.91850000  0.41850000  0.50000000  1.0 0.1054994014
C  C105  1  0.60690000  0.97220000  0.00000000  1.0 -0.1668575017
C  C106  1  0.02780000  0.60690000  0.00000000  1.0 -0.1668575017
C  C107  1  0.39310000  0.02780000  0.00000000  1.0 -0.1668575017
C  C108  1  0.97220000  0.39310000  0.00000000  1.0 -0.1668575017
C  C109  1  0.39310000  0.97220000  0.50000000  1.0 -0.1668575017
C  C110  1  0.97220000  0.60690000  0.50000000  1.0 -0.1668575017
C  C111  1  0.60690000  0.02780000  0.50000000  1.0 -0.1668575017
C  C112  1  0.02780000  0.39310000  0.50000000  1.0 -0.1668575017
C  C113  1  0.10690000  0.47220000  0.50000000  1.0 -0.1668575017
C  C114  1  0.52780000  0.10690000  0.50000000  1.0 -0.1668575017
C  C115  1  0.89310000  0.52780000  0.50000000  1.0 -0.1668575017
C  C116  1  0.47220000  0.89310000  0.50000000  1.0 -0.1668575017
C  C117  1  0.89310000  0.47220000  0.00000000  1.0 -0.1668575017
C  C118  1  0.47220000  0.10690000  0.00000000  1.0 -0.1668575017
C  C119  1  0.10690000  0.52780000  0.00000000  1.0 -0.1668575017
C  C120  1  0.52780000  0.89310000  0.00000000  1.0 -0.1668575017
C  C1  1  0.91120000  0.97850000  0.87450000  0.5 0.0022257698
C  C2  1  0.02150000  0.91120000  0.87450000  0.5 0.0022257698
C  C3  1  0.08880000  0.02150000  0.87450000  0.5 0.0022257698
C  C4  1  0.97850000  0.08880000  0.87450000  0.5 0.0022257698
C  C5  1  0.08880000  0.97850000  0.37450000  0.5 0.0022257698
C  C6  1  0.97850000  0.91120000  0.37450000  0.5 0.0022257698
C  C7  1  0.91120000  0.02150000  0.37450000  0.5 0.0022257698
C  C8  1  0.02150000  0.08880000  0.37450000  0.5 0.0022257698
C  C9  1  0.08880000  0.02150000  0.12550000  0.5 0.0022257698
C  C10  1  0.97850000  0.08880000  0.12550000  0.5 0.0022257698
C  C11  1  0.91120000  0.97850000  0.12550000  0.5 0.0022257698
C  C12  1  0.02150000  0.91120000  0.12550000  0.5 0.0022257698
C  C13  1  0.91120000  0.02150000  0.62550000  0.5 0.0022257698
C  C14  1  0.02150000  0.08880000  0.62550000  0.5 0.0022257698
C  C15  1  0.08880000  0.97850000  0.62550000  0.5 0.0022257698
C  C16  1  0.97850000  0.91120000  0.62550000  0.5 0.0022257698
C  C17  1  0.41120000  0.47850000  0.37450000  0.5 0.0022257698
C  C18  1  0.52150000  0.41120000  0.37450000  0.5 0.0022257698
C  C19  1  0.58880000  0.52150000  0.37450000  0.5 0.0022257698
C  C20  1  0.47850000  0.58880000  0.37450000  0.5 0.0022257698
C  C21  1  0.58880000  0.47850000  0.87450000  0.5 0.0022257698
C  C22  1  0.47850000  0.41120000  0.87450000  0.5 0.0022257698
C  C23  1  0.41120000  0.52150000  0.87450000  0.5 0.0022257698
C  C24  1  0.52150000  0.58880000  0.87450000  0.5 0.0022257698
C  C25  1  0.58880000  0.52150000  0.62550000  0.5 0.0022257698
C  C26  1  0.47850000  0.58880000  0.62550000  0.5 0.0022257698
C  C27  1  0.41120000  0.47850000  0.62550000  0.5 0.0022257698
C  C28  1  0.52150000  0.41120000  0.62550000  0.5 0.0022257698
C  C29  1  0.41120000  0.52150000  0.12550000  0.5 0.0022257698
C  C30  1  0.52150000  0.58880000  0.12550000  0.5 0.0022257698
C  C31  1  0.58880000  0.47850000  0.12550000  0.5 0.0022257698
C  C32  1  0.47850000  0.41120000  0.12550000  0.5 0.0022257698
C  C33  1  0.90800000  0.97800000  0.81540000  0.5 -0.1100891998
C  C34  1  0.02200000  0.90800000  0.81540000  0.5 -0.1100891998
C  C35  1  0.09200000  0.02200000  0.81540000  0.5 -0.1100891998
C  C36  1  0.97800000  0.09200000  0.81540000  0.5 -0.1100891998
C  C37  1  0.09200000  0.97800000  0.31540000  0.5 -0.1100891998
C  C38  1  0.97800000  0.90800000  0.31540000  0.5 -0.1100891998
C  C39  1  0.90800000  0.02200000  0.31540000  0.5 -0.1100891998
C  C40  1  0.02200000  0.09200000  0.31540000  0.5 -0.1100891998
C  C41  1  0.09200000  0.02200000  0.18460000  0.5 -0.1100891998
C  C42  1  0.97800000  0.09200000  0.18460000  0.5 -0.1100891998
C  C43  1  0.90800000  0.97800000  0.18460000  0.5 -0.1100891998
C  C44  1  0.02200000  0.90800000  0.18460000  0.5 -0.1100891998
C  C45  1  0.90800000  0.02200000  0.68460000  0.5 -0.1100891998
C  C46  1  0.02200000  0.09200000  0.68460000  0.5 -0.1100891998
C  C47  1  0.09200000  0.97800000  0.68460000  0.5 -0.1100891998
C  C48  1  0.97800000  0.90800000  0.68460000  0.5 -0.1100891998
C  C49  1  0.40800000  0.47800000  0.31540000  0.5 -0.1100891998
C  C50  1  0.52200000  0.40800000  0.31540000  0.5 -0.1100891998
C  C51  1  0.59200000  0.52200000  0.31540000  0.5 -0.1100891998
C  C52  1  0.47800000  0.59200000  0.31540000  0.5 -0.1100891998
C  C53  1  0.59200000  0.47800000  0.81540000  0.5 -0.1100891998
C  C54  1  0.47800000  0.40800000  0.81540000  0.5 -0.1100891998
C  C55  1  0.40800000  0.52200000  0.81540000  0.5 -0.1100891998
C  C56  1  0.52200000  0.59200000  0.81540000  0.5 -0.1100891998
C  C57  1  0.59200000  0.52200000  0.68460000  0.5 -0.1100891998
C  C58  1  0.47800000  0.59200000  0.68460000  0.5 -0.1100891998
C  C59  1  0.40800000  0.47800000  0.68460000  0.5 -0.1100891998
C  C60  1  0.52200000  0.40800000  0.68460000  0.5 -0.1100891998
C  C61  1  0.40800000  0.52200000  0.18460000  0.5 -0.1100891998
C  C62  1  0.52200000  0.59200000  0.18460000  0.5 -0.1100891998
C  C63  1  0.59200000  0.47800000  0.18460000  0.5 -0.1100891998
C  C64  1  0.47800000  0.40800000  0.18460000  0.5 -0.1100891998
N  N1  1  0.00000000  0.00000000  0.90560000  1.0 -0.1890546049
N  N2  1  0.00000000  0.00000000  0.40560000  1.0 -0.1890546049
N  N3  1  0.00000000  0.00000000  0.09440000  1.0 -0.1890546049
N  N4  1  0.00000000  0.00000000  0.59440000  1.0 -0.1890546049
N  N5  1  0.50000000  0.50000000  0.40560000  1.0 -0.1890546049
N  N6  1  0.50000000  0.50000000  0.90560000  1.0 -0.1890546049
N  N7  1  0.50000000  0.50000000  0.59440000  1.0 -0.1890546049
N  N8  1  0.50000000  0.50000000  0.09440000  1.0 -0.1890546049
N  N9  1  0.85910000  0.10290000  0.00000000  1.0 -0.4590684886
N  N10  1  0.89710000  0.85910000  0.00000000  1.0 -0.4590684886
N  N11  1  0.14090000  0.89710000  0.00000000  1.0 -0.4590684886
N  N12  1  0.10290000  0.14090000  0.00000000  1.0 -0.4590684886
N  N13  1  0.14090000  0.10290000  0.50000000  1.0 -0.4590684886
N  N14  1  0.10290000  0.85910000  0.50000000  1.0 -0.4590684886
N  N15  1  0.85910000  0.89710000  0.50000000  1.0 -0.4590684886
N  N16  1  0.89710000  0.14090000  0.50000000  1.0 -0.4590684886
N  N17  1  0.35910000  0.60290000  0.50000000  1.0 -0.4590684886
N  N18  1  0.39710000  0.35910000  0.50000000  1.0 -0.4590684886
N  N19  1  0.64090000  0.39710000  0.50000000  1.0 -0.4590684886
N  N20  1  0.60290000  0.64090000  0.50000000  1.0 -0.4590684886
N  N21  1  0.64090000  0.60290000  0.00000000  1.0 -0.4590684886
N  N22  1  0.60290000  0.35910000  0.00000000  1.0 -0.4590684886
N  N23  1  0.35910000  0.39710000  0.00000000  1.0 -0.4590684886
N  N24  1  0.39710000  0.64090000  0.00000000  1.0 -0.4590684886
