# DDEC6 charges by PACMAN v1.1 (https://github.com/mtap-research/PACMAN-charge/)
data_cm0c01737_si_005_121_ASR_pacman
_symmetry_space_group_name_H-M   'P 1'
_cell_length_a   5.83570000
_cell_length_b   5.83570000
_cell_length_c   5.33890000
_cell_angle_alpha   90.00000000
_cell_angle_beta   90.00000000
_cell_angle_gamma   90.00000000
_symmetry_Int_Tables_number   1
_chemical_formula_structural   ZnH2(CN4)2
_chemical_formula_sum   'Zn1 H2 C2 N8'
_cell_volume   181.81834564
_cell_formula_units_Z   1
loop_
 _symmetry_equiv_pos_site_id
 _symmetry_equiv_pos_as_xyz
  1  'x, y, z'
loop_
 _atom_site_type_symbol
 _atom_site_label
 _atom_site_symmetry_multiplicity
 _atom_site_fract_x
 _atom_site_fract_y
 _atom_site_fract_z
 _atom_site_occupancy
 _atom_site_charge
Zn  Zn1  1  0.00000000  0.00000000  0.00000000  1.0 0.6091264824
H  H1  1  0.50000000  0.00000000  0.18855000  1.0 0.0864098261
H  H2  1  0.00000000  0.50000000  0.81145000  1.0 0.0864098261
C  C1  1  0.50000000  0.00000000  0.98503000  1.0 0.119898841
C  C2  1  0.00000000  0.50000000  0.01497000  1.0 0.119898841
N  N1  1  0.68685000  0.00000000  0.84094000  1.0 -0.2042769116
N  N2  1  0.31315000  0.00000000  0.84094000  1.0 -0.2042769116
N  N3  1  0.00000000  0.68685000  0.15906000  1.0 -0.2042769116
N  N4  1  0.00000000  0.31315000  0.15906000  1.0 -0.2042769116
N  N5  1  0.61132000  0.00000000  0.60049000  1.0 -0.0511590426
N  N6  1  0.38868000  0.00000000  0.60049000  1.0 -0.0511590426
N  N7  1  0.00000000  0.61132000  0.39951000  1.0 -0.0511590426
N  N8  1  0.00000000  0.38868000  0.39951000  1.0 -0.0511590426
