# DDEC6 charges by PACMAN v1.1 (https://github.com/mtap-research/PACMAN-charge/)
data_2024[Zn][srs]3[FSR]2
_chemical_formula_sum              "Zn4 H24 C28 N16 O8"
_cell_length_a       9.5293
_cell_length_b       9.9206
_cell_length_c       11.3847
_cell_angle_alpha    90
_cell_angle_beta     90
_cell_angle_gamma    90

_symmetry_space_group_name_H-M    "P 1"
_symmetry_Int_Tables_number       1

loop_
  _symmetry_equiv_pos_as_xyz
  'x, y, z'

loop_
  _atom_site_type_symbol
  _atom_site_label
  _atom_site_symmetry_multiplicity
  _atom_site_fract_x
  _atom_site_fract_y
  _atom_site_fract_z
  _atom_site_occupancy
  _atom_site_charge
Zn  Zn1       1.0  0.68664  0.75126  0.15377  1.0000 0.70663882
Zn  Zn2       1.0  0.81336  0.24874  0.65377  1.0000 0.70663882
Zn  Zn3       1.0  0.31336  0.25126  0.34623  1.0000 0.70663882
Zn  Zn4       1.0  0.18664  0.74874  0.84623  1.0000 0.70663882
H   H1        1.0  0.48628  0.50702  0.27691  1.0000 0.1319517116
H   H2        1.0  0.01372  0.49298  0.77691  1.0000 0.1319517116
H   H3        1.0  0.51372  0.00702  0.22309  1.0000 0.1319517116
H   H4        1.0  0.98628  0.99298  0.72309  1.0000 0.1319517116
H   H5        1.0  0.46763  0.84682  0.96963  1.0000 0.1119158449
H   H6        1.0  0.03237  0.15318  0.46963  1.0000 0.1119158449
H   H7        1.0  0.53237  0.34682  0.53037  1.0000 0.1119158449
H   H8        1.0  0.96763  0.65318  0.03037  1.0000 0.1119158449
H   H9        1.0  0.13255  0.36614  0.16051  1.0000 0.1119158449
H   H10       1.0  0.36745  0.63386  0.66051  1.0000 0.1119158449
H   H11       1.0  0.86745  0.86614  0.33949  1.0000 0.1119158449
H   H12       1.0  0.63255  0.13386  0.83949  1.0000 0.1119158449
H   H13       1.0  0.85200  0.43481  0.41323  1.0000 0.1582661142
H   H14       1.0  0.64800  0.56519  0.91323  1.0000 0.1582661142
H   H15       1.0  0.14800  0.93481  0.08677  1.0000 0.1582661142
H   H16       1.0  0.35200  0.06519  0.58677  1.0000 0.1582661142
H   H17       1.0  0.96498  0.39747  0.31858  1.0000 0.1582661142
H   H18       1.0  0.53502  0.60253  0.81858  1.0000 0.1582661142
H   H19       1.0  0.03502  0.89747  0.18142  1.0000 0.1582661142
H   H20       1.0  0.46498  0.10253  0.68142  1.0000 0.1582661142
H   H21       1.0  0.80861  0.35252  0.30142  1.0000 0.1582661142
H   H22       1.0  0.69139  0.64748  0.80142  1.0000 0.1582661142
H   H23       1.0  0.19139  0.85252  0.19858  1.0000 0.1582661142
H   H24       1.0  0.30861  0.14748  0.69858  1.0000 0.1582661142
C   C1        1.0  0.41200  0.50940  0.22400  1.0000 0.0481054172
C   C2        1.0  0.08800  0.49060  0.72400  1.0000 0.0481054172
C   C3        1.0  0.58800  0.00940  0.27600  1.0000 0.0481054172
C   C4        1.0  0.91200  0.99060  0.77600  1.0000 0.0481054172
C   C5        1.0  0.29670  0.60990  0.06200  1.0000 0.2676261733
C   C6        1.0  0.20330  0.39010  0.56200  1.0000 0.2676261733
C   C7        1.0  0.70330  0.10990  0.43800  1.0000 0.2676261733
C   C8        1.0  0.79670  0.89010  0.93800  1.0000 0.2676261733
C   C9        1.0  0.43110  0.77330  0.01000  1.0000 0.2103910106
C   C10       1.0  0.06890  0.22670  0.51000  1.0000 0.2103910106
C   C11       1.0  0.56890  0.27330  0.49000  1.0000 0.2103910106
C   C12       1.0  0.93110  0.72670  0.99000  1.0000 0.2103910106
C   C13       1.0  0.40820  0.61020  0.13740  1.0000 0.0580060626
C   C14       1.0  0.09180  0.38980  0.63740  1.0000 0.0580060626
C   C15       1.0  0.59180  0.11020  0.36260  1.0000 0.0580060626
C   C16       1.0  0.90820  0.88980  0.86260  1.0000 0.0580060626
C   C17       1.0  0.20460  0.42900  0.15500  1.0000 0.2177537749
C   C18       1.0  0.29540  0.57100  0.65500  1.0000 0.2177537749
C   C19       1.0  0.79540  0.92900  0.34500  1.0000 0.2177537749
C   C20       1.0  0.70460  0.07100  0.84500  1.0000 0.2177537749
C   C21       1.0  0.83810  0.55350  0.26590  1.0000 0.6600804398
C   C22       1.0  0.66190  0.44650  0.76590  1.0000 0.6600804398
C   C23       1.0  0.16190  0.05350  0.23410  1.0000 0.6600804398
C   C24       1.0  0.33810  0.94650  0.73410  1.0000 0.6600804398
C   C25       1.0  0.86880  0.42250  0.33080  1.0000 -0.586049669
C   C26       1.0  0.63120  0.57750  0.83080  1.0000 -0.586049669
C   C27       1.0  0.13120  0.92250  0.16920  1.0000 -0.586049669
C   C28       1.0  0.36880  0.07750  0.66920  1.0000 -0.586049669
N   N1        1.0  0.49330  0.71740  0.10140  1.0000 -0.3180829217
N   N2        1.0  0.00670  0.28260  0.60140  1.0000 -0.3180829217
N   N3        1.0  0.50670  0.21740  0.39860  1.0000 -0.3180829217
N   N4        1.0  0.99330  0.78260  0.89860  1.0000 -0.3180829217
N   N5        1.0  0.31120  0.71390  0.98140  1.0000 -0.3683062126
N   N6        1.0  0.18880  0.28610  0.48140  1.0000 -0.3683062126
N   N7        1.0  0.68880  0.21390  0.51860  1.0000 -0.3683062126
N   N8        1.0  0.81120  0.78610  0.01860  1.0000 -0.3683062126
N   N9        1.0  0.30950  0.41600  0.23160  1.0000 -0.2751061847
N   N10       1.0  0.19050  0.58400  0.73160  1.0000 -0.2751061847
N   N11       1.0  0.69050  0.91600  0.26840  1.0000 -0.2751061847
N   N12       1.0  0.80950  0.08400  0.76840  1.0000 -0.2751061847
N   N13       1.0  0.19140  0.52260  0.07090  1.0000 -0.3342980673
N   N14       1.0  0.30860  0.47740  0.57090  1.0000 -0.3342980673
N   N15       1.0  0.80860  0.02260  0.42910  1.0000 -0.3342980673
N   N16       1.0  0.69140  0.97740  0.92910  1.0000 -0.3342980673
O   O1        1.0  0.71970  0.56540  0.22290  1.0000 -0.5346366992
O   O2        1.0  0.78030  0.43460  0.72290  1.0000 -0.5346366992
O   O3        1.0  0.28030  0.06540  0.27710  1.0000 -0.5346366992
O   O4        1.0  0.21970  0.93460  0.77710  1.0000 -0.5346366992
O   O5        1.0  0.92390  0.64670  0.25680  1.0000 -0.5827036878
O   O6        1.0  0.57610  0.35330  0.75680  1.0000 -0.5827036878
O   O7        1.0  0.07610  0.14670  0.24320  1.0000 -0.5827036878
O   O8        1.0  0.42390  0.85330  0.74320  1.0000 -0.5827036878
