# DDEC6 charges by PACMAN v1.1 (https://github.com/mtap-research/PACMAN-charge/)
data_la304204k_si_002_ASR_pacman
_symmetry_space_group_name_H-M   'P 1'
_cell_length_a   15.39160000
_cell_length_b   15.39160000
_cell_length_c   9.58800000
_cell_angle_alpha   90.00000000
_cell_angle_beta   90.00000000
_cell_angle_gamma   90.00000000
_symmetry_Int_Tables_number   1
_chemical_formula_structural   ZnC16NO4
_chemical_formula_sum   'Zn4 C64 N4 O16'
_cell_volume   2271.41014917
_cell_formula_units_Z   4
loop_
 _symmetry_equiv_pos_site_id
 _symmetry_equiv_pos_as_xyz
  1  'x, y, z'
loop_
 _atom_site_type_symbol
 _atom_site_label
 _atom_site_symmetry_multiplicity
 _atom_site_fract_x
 _atom_site_fract_y
 _atom_site_fract_z
 _atom_site_occupancy
 _atom_site_charge
Zn  Zn1  1  0.50000000  0.50000000  0.34860000  1.0 0.7999128286
Zn  Zn2  1  0.50000000  0.50000000  0.65140000  1.0 0.7999128286
Zn  Zn3  1  0.00000000  0.00000000  0.34810000  1.0 0.8496250097
Zn  Zn4  1  0.00000000  0.00000000  0.65190000  1.0 0.8496250097
C  C1  1  0.38740000  0.38740000  0.50000000  1.0 0.5601743046
C  C2  1  0.38740000  0.61260000  0.50000000  1.0 0.5601743046
C  C3  1  0.61260000  0.61260000  0.50000000  1.0 0.5601743046
C  C4  1  0.61260000  0.38740000  0.50000000  1.0 0.5601743046
C  C5  1  0.30700000  0.30700000  0.50000000  1.0 -0.1002069603
C  C6  1  0.30700000  0.69300000  0.50000000  1.0 -0.1002069603
C  C7  1  0.69300000  0.69300000  0.50000000  1.0 -0.1002069603
C  C8  1  0.69300000  0.30700000  0.50000000  1.0 -0.1002069603
C  C9  1  0.18190000  0.18190000  0.50000000  1.0 -0.0216098429
C  C10  1  0.18190000  0.81810000  0.50000000  1.0 -0.0216098429
C  C11  1  0.81810000  0.81810000  0.50000000  1.0 -0.0216098429
C  C12  1  0.81810000  0.18190000  0.50000000  1.0 -0.0144701082
C  C13  1  0.11880000  0.11880000  0.50000000  1.0 0.5601743046
C  C14  1  0.11880000  0.88120000  0.50000000  1.0 0.5601743046
C  C15  1  0.88120000  0.88120000  0.50000000  1.0 0.5601743046
C  C16  1  0.88120000  0.11880000  0.50000000  1.0 0.5601743046
C  C17  1  0.00000000  0.08640000  0.07800000  1.0 0.0787731946
C  C18  1  0.08640000  0.00000000  0.07800000  1.0 0.0787731946
C  C19  1  0.00000000  0.91360000  0.07800000  1.0 0.0787731946
C  C20  1  0.91360000  0.00000000  0.07800000  1.0 0.0787731946
C  C21  1  0.00000000  0.08640000  0.92200000  1.0 0.0787731946
C  C22  1  0.00000000  0.91360000  0.92200000  1.0 0.0787731946
C  C23  1  0.08640000  0.00000000  0.92200000  1.0 0.0787731946
C  C24  1  0.91360000  0.00000000  0.92200000  1.0 0.0787731946
C  C25  1  0.43970000  0.43970000  0.08000000  1.0 0.0698230531
C  C26  1  0.43970000  0.56030000  0.08000000  1.0 0.0698230531
C  C27  1  0.56030000  0.56030000  0.08000000  1.0 0.0698230531
C  C28  1  0.56030000  0.43970000  0.08000000  1.0 0.0698230531
C  C29  1  0.56030000  0.43970000  0.92000000  1.0 0.0698230531
C  C30  1  0.43970000  0.56030000  0.92000000  1.0 0.0698230531
C  C31  1  0.43970000  0.43970000  0.92000000  1.0 0.0698230531
C  C32  1  0.56030000  0.56030000  0.92000000  1.0 0.0698230531
C  C33  1  0.24300000  0.31720000  0.42200000  1.0 -0.0216098429
C  C34  1  0.31720000  0.75700000  0.42200000  1.0 -0.0216098429
C  C35  1  0.75700000  0.68280000  0.42200000  1.0 -0.0216098429
C  C36  1  0.68280000  0.24300000  0.42200000  1.0 -0.0216098429
C  C37  1  0.75700000  0.31720000  0.57800000  1.0 -0.0216098429
C  C38  1  0.24300000  0.68280000  0.57800000  1.0 -0.0216098429
C  C39  1  0.31720000  0.24300000  0.57800000  1.0 -0.0216098429
C  C40  1  0.68280000  0.75700000  0.57800000  1.0 -0.0216098429
C  C41  1  0.75700000  0.68280000  0.57800000  1.0 -0.0216098429
C  C42  1  0.68280000  0.24300000  0.57800000  1.0 -0.0216098429
C  C43  1  0.24300000  0.31720000  0.57800000  1.0 -0.0216098429
C  C44  1  0.31720000  0.75700000  0.57800000  1.0 -0.0216098429
C  C45  1  0.24300000  0.68280000  0.42200000  1.0 -0.0216098429
C  C46  1  0.75700000  0.31720000  0.42200000  1.0 -0.0216098429
C  C47  1  0.68280000  0.75700000  0.42200000  1.0 -0.0216098429
C  C48  1  0.31720000  0.24300000  0.42200000  1.0 -0.0216098429
C  C49  1  0.25350000  0.18850000  0.38300000  1.0 -0.0481222173
C  C50  1  0.18850000  0.74650000  0.38300000  1.0 -0.0481222173
C  C51  1  0.74650000  0.81150000  0.38300000  1.0 -0.0481222173
C  C52  1  0.81150000  0.25350000  0.38300000  1.0 -0.0481222173
C  C53  1  0.74650000  0.18850000  0.61700000  1.0 -0.0481222173
C  C54  1  0.25350000  0.81150000  0.61700000  1.0 -0.0481222173
C  C55  1  0.18850000  0.25350000  0.61700000  1.0 -0.0481222173
C  C56  1  0.81150000  0.74650000  0.61700000  1.0 -0.0481222173
C  C57  1  0.74650000  0.81150000  0.61700000  1.0 -0.0481222173
C  C58  1  0.81150000  0.25350000  0.61700000  1.0 -0.0481222173
C  C59  1  0.25350000  0.18850000  0.61700000  1.0 -0.0481222173
C  C60  1  0.18850000  0.74650000  0.61700000  1.0 -0.0481222173
C  C61  1  0.25350000  0.81150000  0.38300000  1.0 -0.0481222173
C  C62  1  0.74650000  0.18850000  0.38300000  1.0 -0.0481222173
C  C63  1  0.81150000  0.74650000  0.38300000  1.0 -0.0481222173
C  C64  1  0.18850000  0.25350000  0.38300000  1.0 -0.0481222173
N  N1  1  0.50000000  0.50000000  0.12200000  1.0 0.0698230531
N  N2  1  0.50000000  0.50000000  0.87800000  1.0 0.0698230531
N  N3  1  0.00000000  0.00000000  0.13930000  1.0 0.0414212212
N  N4  1  0.00000000  0.00000000  0.86070000  1.0 0.0414212212
O  O1  1  0.40780000  0.40780000  0.38400000  1.0 -0.4418515976
O  O2  1  0.40780000  0.59220000  0.38400000  1.0 -0.4418515976
O  O3  1  0.59220000  0.59220000  0.38400000  1.0 -0.4418515976
O  O4  1  0.59220000  0.40780000  0.38400000  1.0 -0.4418515976
O  O5  1  0.59220000  0.40780000  0.61600000  1.0 -0.4418515976
O  O6  1  0.40780000  0.59220000  0.61600000  1.0 -0.4418515976
O  O7  1  0.40780000  0.40780000  0.61600000  1.0 -0.4418515976
O  O8  1  0.59220000  0.59220000  0.61600000  1.0 -0.4418515976
O  O9  1  0.09060000  0.09060000  0.38520000  1.0 -0.5076344277
O  O10  1  0.09060000  0.90940000  0.38520000  1.0 -0.5076344277
O  O11  1  0.90940000  0.90940000  0.38520000  1.0 -0.5076344277
O  O12  1  0.90940000  0.09060000  0.38520000  1.0 -0.5076344277
O  O13  1  0.90940000  0.09060000  0.61480000  1.0 -0.5076344277
O  O14  1  0.09060000  0.90940000  0.61480000  1.0 -0.5076344277
O  O15  1  0.09060000  0.09060000  0.61480000  1.0 -0.5076344277
O  O16  1  0.90940000  0.90940000  0.61480000  1.0 -0.5076344277
