# DDEC6 charges by PACMAN v1.1 (https://github.com/mtap-research/PACMAN-charge/)
data_ja111042f_si_002_ASR_pacman
_symmetry_space_group_name_H-M   'P 1'
_cell_length_a   16.58430000
_cell_length_b   16.59900000
_cell_length_c   22.22520000
_cell_angle_alpha   90.00000000
_cell_angle_beta   90.00000000
_cell_angle_gamma   90.00000000
_symmetry_Int_Tables_number   1
_chemical_formula_structural   AlZn3H40C90N10(O4F5)2
_chemical_formula_sum   'Al1 Zn3 H40 C90 N10 O8 F10'
_cell_volume   6118.21519099
_cell_formula_units_Z   1
loop_
 _symmetry_equiv_pos_site_id
 _symmetry_equiv_pos_as_xyz
  1  'x, y, z'
loop_
 _atom_site_type_symbol
 _atom_site_label
 _atom_site_symmetry_multiplicity
 _atom_site_fract_x
 _atom_site_fract_y
 _atom_site_fract_z
 _atom_site_occupancy
 _atom_site_charge
Al  Al1  1  0.50000000  0.00000000  0.50000000  1.0 1.0885812138
Zn  Zn1  1  0.00000000  0.50000000  0.43483000  1.0 0.7769781445
Zn  Zn2  1  0.00000000  0.50000000  0.56517000  1.0 0.7769781445
Zn  Zn3  1  0.00000000  0.50000000  0.00000000  1.0 0.4399658535
H  H1  1  0.18110000  0.68070000  0.40950000  1.0 0.1241619603
H  H2  1  0.81890000  0.31930000  0.40950000  1.0 0.1241619603
H  H3  1  0.81890000  0.68070000  0.59050000  1.0 0.1241619603
H  H4  1  0.18110000  0.31930000  0.59050000  1.0 0.1241619603
H  H5  1  0.81890000  0.31930000  0.59050000  1.0 0.1241619603
H  H6  1  0.18110000  0.68070000  0.59050000  1.0 0.1241619603
H  H7  1  0.18110000  0.31930000  0.40950000  1.0 0.1241619603
H  H8  1  0.81890000  0.68070000  0.40950000  1.0 0.1241619603
H  H9  1  0.27780000  0.78290000  0.40720000  1.0 0.1241619603
H  H10  1  0.72220000  0.21710000  0.40720000  1.0 0.1241619603
H  H11  1  0.72220000  0.78290000  0.59280000  1.0 0.1241619603
H  H12  1  0.27780000  0.21710000  0.59280000  1.0 0.1241619603
H  H13  1  0.72220000  0.21710000  0.59280000  1.0 0.1241619603
H  H14  1  0.27780000  0.78290000  0.59280000  1.0 0.1241619603
H  H15  1  0.27780000  0.21710000  0.40720000  1.0 0.1241619603
H  H16  1  0.72220000  0.78290000  0.40720000  1.0 0.1241619603
H  H17  1  0.20120000  0.92380000  0.50000000  1.0 0.1241619603
H  H18  1  0.79880000  0.07620000  0.50000000  1.0 0.1241619603
H  H19  1  0.79880000  0.92380000  0.50000000  1.0 0.1241619603
H  H20  1  0.20120000  0.07620000  0.50000000  1.0 0.1241619603
H  H21  1  0.42170000  0.70130000  0.50000000  1.0 0.1241619603
H  H22  1  0.57830000  0.29870000  0.50000000  1.0 0.1241619603
H  H23  1  0.57830000  0.70130000  0.50000000  1.0 0.1241619603
H  H24  1  0.42170000  0.29870000  0.50000000  1.0 0.1241619603
H  H25  1  0.08010000  0.59050000  0.33210000  0.5 0.1286326517
H  H26  1  0.91990000  0.40950000  0.33210000  0.5 0.1286326517
H  H27  1  0.91990000  0.59050000  0.66790000  0.5 0.1286326517
H  H28  1  0.08010000  0.40950000  0.66790000  0.5 0.1286326517
H  H29  1  0.91990000  0.40950000  0.66790000  0.5 0.1286326517
H  H30  1  0.08010000  0.59050000  0.66790000  0.5 0.1286326517
H  H31  1  0.08010000  0.40950000  0.33210000  0.5 0.1286326517
H  H32  1  0.91990000  0.59050000  0.33210000  0.5 0.1286326517
H  H33  1  0.08330000  0.58400000  0.23230000  0.5 0.1013474434
H  H34  1  0.91670000  0.41600000  0.23230000  0.5 0.1013474434
H  H35  1  0.91670000  0.58400000  0.76770000  0.5 0.1013474434
H  H36  1  0.08330000  0.41600000  0.76770000  0.5 0.1013474434
H  H37  1  0.91670000  0.41600000  0.76770000  0.5 0.1013474434
H  H38  1  0.08330000  0.58400000  0.76770000  0.5 0.1013474434
H  H39  1  0.08330000  0.41600000  0.23230000  0.5 0.1013474434
H  H40  1  0.91670000  0.58400000  0.23230000  0.5 0.1013474434
H  H41  1  0.03630000  0.34560000  0.19490000  0.5 0.0671755095
H  H42  1  0.96370000  0.65440000  0.19490000  0.5 0.0671755095
H  H43  1  0.96370000  0.34560000  0.80510000  0.5 0.0671755095
H  H44  1  0.03630000  0.65440000  0.80510000  0.5 0.0671755095
H  H45  1  0.96370000  0.65440000  0.80510000  0.5 0.0671755095
H  H46  1  0.03630000  0.34560000  0.80510000  0.5 0.0671755095
H  H47  1  0.03630000  0.65440000  0.19490000  0.5 0.0671755095
H  H48  1  0.96370000  0.34560000  0.19490000  0.5 0.0671755095
H  H49  1  0.08930000  0.25670000  0.10860000  0.5 0.1378812884
H  H50  1  0.91070000  0.74330000  0.10860000  0.5 0.1378812884
H  H51  1  0.91070000  0.25670000  0.89140000  0.5 0.1378812884
H  H52  1  0.08930000  0.74330000  0.89140000  0.5 0.1378812884
H  H53  1  0.91070000  0.74330000  0.89140000  0.5 0.1378812884
H  H54  1  0.08930000  0.25670000  0.89140000  0.5 0.1378812884
H  H55  1  0.08930000  0.74330000  0.10860000  0.5 0.1378812884
H  H56  1  0.91070000  0.25670000  0.10860000  0.5 0.1378812884
C  C1  1  0.10880000  0.60760000  0.50000000  1.0 0.5635794495
C  C2  1  0.89120000  0.39240000  0.50000000  1.0 0.5635794495
C  C3  1  0.89120000  0.60760000  0.50000000  1.0 0.5635794495
C  C4  1  0.10880000  0.39240000  0.50000000  1.0 0.5635794495
C  C5  1  0.17090000  0.67190000  0.50000000  1.0 -0.0467587187
C  C6  1  0.82910000  0.32810000  0.50000000  1.0 -0.0467587187
C  C7  1  0.82910000  0.67190000  0.50000000  1.0 -0.0467587187
C  C8  1  0.17090000  0.32810000  0.50000000  1.0 -0.0467587187
C  C9  1  0.20110000  0.70200000  0.44630000  1.0 -0.0949316215
C  C10  1  0.79890000  0.29800000  0.44630000  1.0 -0.0949316215
C  C11  1  0.79890000  0.70200000  0.55370000  1.0 -0.0949316215
C  C12  1  0.20110000  0.29800000  0.55370000  1.0 -0.0949316215
C  C13  1  0.79890000  0.29800000  0.55370000  1.0 -0.0949316215
C  C14  1  0.20110000  0.70200000  0.55370000  1.0 -0.0949316215
C  C15  1  0.20110000  0.29800000  0.44630000  1.0 -0.0949316215
C  C16  1  0.79890000  0.70200000  0.44630000  1.0 -0.0949316215
C  C17  1  0.25900000  0.76170000  0.44430000  1.0 -0.1632411088
C  C18  1  0.74100000  0.23830000  0.44430000  1.0 -0.1632411088
C  C19  1  0.74100000  0.76170000  0.55570000  1.0 -0.1632411088
C  C20  1  0.25900000  0.23830000  0.55570000  1.0 -0.1632411088
C  C21  1  0.74100000  0.23830000  0.55570000  1.0 -0.1632411088
C  C22  1  0.25900000  0.76170000  0.55570000  1.0 -0.1632411088
C  C23  1  0.25900000  0.23830000  0.44430000  1.0 -0.1632411088
C  C24  1  0.74100000  0.76170000  0.44430000  1.0 -0.1632411088
C  C25  1  0.28900000  0.78970000  0.50000000  1.0 0.1129717325
C  C26  1  0.71100000  0.21030000  0.50000000  1.0 0.1129717325
C  C27  1  0.71100000  0.78970000  0.50000000  1.0 0.1129717325
C  C28  1  0.28900000  0.21030000  0.50000000  1.0 0.1129717325
C  C29  1  0.35420000  0.85450000  0.50000000  1.0 -0.1110912393
C  C30  1  0.64580000  0.14550000  0.50000000  1.0 -0.1110912393
C  C31  1  0.64580000  0.85450000  0.50000000  1.0 -0.1110912393
C  C32  1  0.35420000  0.14550000  0.50000000  1.0 -0.1110912393
C  C33  1  0.32880000  0.93350000  0.50000000  1.0 0.1897692401
C  C34  1  0.67120000  0.06650000  0.50000000  1.0 0.1897692401
C  C35  1  0.67120000  0.93350000  0.50000000  1.0 0.1897692401
C  C36  1  0.32880000  0.06650000  0.50000000  1.0 0.1897692401
C  C37  1  0.24720000  0.95790000  0.50000000  1.0 -0.2004623282
C  C38  1  0.75280000  0.04210000  0.50000000  1.0 -0.2004623282
C  C39  1  0.75280000  0.95790000  0.50000000  1.0 -0.2004623282
C  C40  1  0.24720000  0.04210000  0.50000000  1.0 -0.2004623282
C  C41  1  0.43410000  0.82900000  0.50000000  1.0 0.1897692401
C  C42  1  0.56590000  0.17100000  0.50000000  1.0 0.1897692401
C  C43  1  0.56590000  0.82900000  0.50000000  1.0 0.1897692401
C  C44  1  0.43410000  0.17100000  0.50000000  1.0 0.1897692401
C  C45  1  0.45650000  0.74680000  0.50000000  1.0 -0.2004623282
C  C46  1  0.54350000  0.25320000  0.50000000  1.0 -0.2004623282
C  C47  1  0.54350000  0.74680000  0.50000000  1.0 -0.2004623282
C  C48  1  0.45650000  0.25320000  0.50000000  1.0 -0.2004623282
C  C49  1  0.00000000  0.50000000  0.22100000  1.0 -0.0231855306
C  C50  1  0.00000000  0.50000000  0.77900000  1.0 -0.0231855306
C  C51  1  0.00000000  0.50000000  0.15660000  1.0 -0.0105092241
C  C52  1  0.00000000  0.50000000  0.84340000  1.0 -0.0105092241
C  C53  1  0.04710000  0.55190000  0.31240000  0.5 -0.0231855306
C  C54  1  0.95290000  0.44810000  0.31240000  0.5 -0.0231855306
C  C55  1  0.95290000  0.55190000  0.68760000  0.5 -0.0231855306
C  C56  1  0.04710000  0.44810000  0.68760000  0.5 -0.0231855306
C  C57  1  0.95290000  0.44810000  0.68760000  0.5 -0.0231855306
C  C58  1  0.04710000  0.55190000  0.68760000  0.5 -0.0231855306
C  C59  1  0.04710000  0.44810000  0.31240000  0.5 -0.0231855306
C  C60  1  0.95290000  0.55190000  0.31240000  0.5 -0.0231855306
C  C61  1  0.04750000  0.54920000  0.25330000  0.5 -0.0949316215
C  C62  1  0.95250000  0.45080000  0.25330000  0.5 -0.0949316215
C  C63  1  0.95250000  0.54920000  0.74670000  0.5 -0.0949316215
C  C64  1  0.04750000  0.45080000  0.74670000  0.5 -0.0949316215
C  C65  1  0.95250000  0.45080000  0.74670000  0.5 -0.0949316215
C  C66  1  0.04750000  0.54920000  0.74670000  0.5 -0.0949316215
C  C67  1  0.04750000  0.45080000  0.25330000  0.5 -0.0949316215
C  C68  1  0.95250000  0.54920000  0.25330000  0.5 -0.0949316215
C  C69  1  0.03510000  0.44380000  0.12530000  0.5 0.0513532553
C  C70  1  0.96490000  0.55620000  0.12530000  0.5 0.0513532553
C  C71  1  0.96490000  0.44380000  0.87470000  0.5 0.0513532553
C  C72  1  0.03510000  0.55620000  0.87470000  0.5 0.0513532553
C  C73  1  0.96490000  0.55620000  0.87470000  0.5 0.0513532553
C  C74  1  0.03510000  0.44380000  0.87470000  0.5 0.0513532553
C  C75  1  0.03510000  0.55620000  0.12530000  0.5 0.0513532553
C  C76  1  0.96490000  0.44380000  0.12530000  0.5 0.0513532553
C  C77  1  0.04750000  0.36130000  0.15470000  0.5 -0.0600344091
C  C78  1  0.95250000  0.63870000  0.15470000  0.5 -0.0600344091
C  C79  1  0.95250000  0.36130000  0.84530000  0.5 -0.0600344091
C  C80  1  0.04750000  0.63870000  0.84530000  0.5 -0.0600344091
C  C81  1  0.95250000  0.63870000  0.84530000  0.5 -0.0600344091
C  C82  1  0.04750000  0.36130000  0.84530000  0.5 -0.0600344091
C  C83  1  0.04750000  0.63870000  0.15470000  0.5 -0.0600344091
C  C84  1  0.95250000  0.36130000  0.15470000  0.5 -0.0600344091
C  C85  1  0.08030000  0.31310000  0.10670000  0.5 -0.2824966591
C  C86  1  0.91970000  0.68690000  0.10670000  0.5 -0.2824966591
C  C87  1  0.91970000  0.31310000  0.89330000  0.5 -0.2824966591
C  C88  1  0.08030000  0.68690000  0.89330000  0.5 -0.2824966591
C  C89  1  0.91970000  0.68690000  0.89330000  0.5 -0.2824966591
C  C90  1  0.08030000  0.31310000  0.89330000  0.5 -0.2824966591
C  C91  1  0.08030000  0.68690000  0.10670000  0.5 -0.2824966591
C  C92  1  0.91970000  0.31310000  0.10670000  0.5 -0.2824966591
C  C93  1  0.09870000  0.36670000  0.05190000  0.5 0.1631438639
C  C94  1  0.90130000  0.63330000  0.05190000  0.5 0.1631438639
C  C95  1  0.90130000  0.36670000  0.94810000  0.5 0.1631438639
C  C96  1  0.09870000  0.63330000  0.94810000  0.5 0.1631438639
C  C97  1  0.90130000  0.63330000  0.94810000  0.5 0.1631438639
C  C98  1  0.09870000  0.36670000  0.94810000  0.5 0.1631438639
C  C99  1  0.09870000  0.63330000  0.05190000  0.5 0.1631438639
C  C100  1  0.90130000  0.36670000  0.05190000  0.5 0.1631438639
C  C101  1  0.12800000  0.35600000  0.00000000  0.5 -0.1522252177
C  C102  1  0.87200000  0.64400000  0.00000000  0.5 -0.1522252177
C  C103  1  0.87200000  0.35600000  0.00000000  0.5 -0.1522252177
C  C104  1  0.12800000  0.64400000  0.00000000  0.5 -0.1522252177
C  C105  1  0.21300000  0.29100000  0.00000000  0.5 -0.1522252177
C  C106  1  0.78700000  0.70900000  0.00000000  0.5 -0.1522252177
C  C107  1  0.78700000  0.29100000  0.00000000  0.5 -0.1522252177
C  C108  1  0.21300000  0.70900000  0.00000000  0.5 -0.1522252177
C  C109  1  0.29000000  0.32400000  0.00000000  0.5 0.1848765705
C  C110  1  0.71000000  0.67600000  0.00000000  0.5 0.1848765705
C  C111  1  0.71000000  0.32400000  0.00000000  0.5 0.1848765705
C  C112  1  0.29000000  0.67600000  0.00000000  0.5 0.1848765705
C  C113  1  0.35700000  0.27400000  0.00000000  0.5 0.0596110347
C  C114  1  0.64300000  0.72600000  0.00000000  0.5 0.0596110347
C  C115  1  0.64300000  0.27400000  0.00000000  0.5 0.0596110347
C  C116  1  0.35700000  0.72600000  0.00000000  0.5 0.0596110347
C  C117  1  0.34800000  0.19100000  0.00000000  0.5 0.1286326517
C  C118  1  0.65200000  0.80900000  0.00000000  0.5 0.1286326517
C  C119  1  0.65200000  0.19100000  0.00000000  0.5 0.1286326517
C  C120  1  0.34800000  0.80900000  0.00000000  0.5 0.1286326517
C  C121  1  0.27100000  0.15760000  0.00000000  0.5 0.1013474434
C  C122  1  0.72900000  0.84240000  0.00000000  0.5 0.1013474434
C  C123  1  0.72900000  0.15760000  0.00000000  0.5 0.1013474434
C  C124  1  0.27100000  0.84240000  0.00000000  0.5 0.1013474434
C  C125  1  0.20400000  0.20700000  0.00000000  0.5 0.1286326517
C  C126  1  0.79600000  0.79300000  0.00000000  0.5 0.1286326517
C  C127  1  0.79600000  0.20700000  0.00000000  0.5 0.1286326517
C  C128  1  0.20400000  0.79300000  0.00000000  0.5 0.1286326517
N  N1  1  0.50000000  0.88060000  0.50000000  1.0 -0.450724205
N  N2  1  0.50000000  0.11940000  0.50000000  1.0 -0.450724205
N  N3  1  0.38030000  0.00000000  0.50000000  1.0 -0.450724205
N  N4  1  0.61970000  0.00000000  0.50000000  1.0 -0.450724205
N  N5  1  0.00000000  0.50000000  0.34750000  1.0 -0.1278382943
N  N6  1  0.00000000  0.50000000  0.65250000  1.0 -0.1278382943
N  N7  1  0.05930000  0.44030000  0.06390000  0.5 -0.1522252177
N  N8  1  0.94070000  0.55970000  0.06390000  0.5 -0.1522252177
N  N9  1  0.94070000  0.44030000  0.93610000  0.5 -0.1522252177
N  N10  1  0.05930000  0.55970000  0.93610000  0.5 -0.1522252177
N  N11  1  0.94070000  0.55970000  0.93610000  0.5 -0.1522252177
N  N12  1  0.05930000  0.44030000  0.93610000  0.5 -0.1522252177
N  N13  1  0.05930000  0.55970000  0.06390000  0.5 -0.1522252177
N  N14  1  0.94070000  0.44030000  0.06390000  0.5 -0.1522252177
O  O1  1  0.08511000  0.58394000  0.45117000  1.0 -0.5003542062
O  O2  1  0.91489000  0.41606000  0.45117000  1.0 -0.5003542062
O  O3  1  0.91489000  0.58394000  0.54883000  1.0 -0.5003542062
O  O4  1  0.08511000  0.41606000  0.54883000  1.0 -0.5003542062
O  O5  1  0.91489000  0.41606000  0.54883000  1.0 -0.5003542062
O  O6  1  0.08511000  0.58394000  0.54883000  1.0 -0.5003542062
O  O7  1  0.08511000  0.41606000  0.45117000  1.0 -0.5003542062
O  O8  1  0.91489000  0.58394000  0.45117000  1.0 -0.5003542062
F  F1  1  0.30100000  0.39940000  0.00000000  0.5 -0.0790891852
F  F2  1  0.69900000  0.60060000  0.00000000  0.5 -0.0790891852
F  F3  1  0.69900000  0.39940000  0.00000000  0.5 -0.0790891852
F  F4  1  0.30100000  0.60060000  0.00000000  0.5 -0.0790891852
F  F5  1  0.42200000  0.31410000  0.00000000  0.5 -0.0600344091
F  F6  1  0.57800000  0.68590000  0.00000000  0.5 -0.0600344091
F  F7  1  0.57800000  0.31410000  0.00000000  0.5 -0.0600344091
F  F8  1  0.42200000  0.68590000  0.00000000  0.5 -0.0600344091
F  F9  1  0.40050000  0.14650000  0.00000000  0.5 -0.0310229128
F  F10  1  0.59950000  0.85350000  0.00000000  0.5 -0.0310229128
F  F11  1  0.59950000  0.14650000  0.00000000  0.5 -0.0310229128
F  F12  1  0.40050000  0.85350000  0.00000000  0.5 -0.0310229128
F  F13  1  0.24710000  0.08900000  0.00000000  0.5 -0.0383543101
F  F14  1  0.75290000  0.91100000  0.00000000  0.5 -0.0383543101
F  F15  1  0.75290000  0.08900000  0.00000000  0.5 -0.0383543101
F  F16  1  0.24710000  0.91100000  0.00000000  0.5 -0.0383543101
F  F17  1  0.12170000  0.17690000  0.00000000  0.5 -0.1278382943
F  F18  1  0.87830000  0.82310000  0.00000000  0.5 -0.1278382943
F  F19  1  0.87830000  0.17690000  0.00000000  0.5 -0.1278382943
F  F20  1  0.12170000  0.82310000  0.00000000  0.5 -0.1278382943
