# DDEC6 charges by PACMAN v1.1 (https://github.com/mtap-research/PACMAN-charge/)
data_d0ce01043j2_5_ASR_pacman
_symmetry_space_group_name_H-M   'P 1'
_cell_length_a   11.84280000
_cell_length_b   15.98660000
_cell_length_c   25.13150000
_cell_angle_alpha   90.00000000
_cell_angle_beta   90.00000000
_cell_angle_gamma   90.00000000
_symmetry_Int_Tables_number   1
_chemical_formula_structural   ZnH20C20(NO2)2
_chemical_formula_sum   'Zn8 H160 C160 N16 O32'
_cell_volume   4758.04904500
_cell_formula_units_Z   8
loop_
 _symmetry_equiv_pos_site_id
 _symmetry_equiv_pos_as_xyz
  1  'x, y, z'
loop_
 _atom_site_type_symbol
 _atom_site_label
 _atom_site_symmetry_multiplicity
 _atom_site_fract_x
 _atom_site_fract_y
 _atom_site_fract_z
 _atom_site_occupancy
 _atom_site_charge
Zn  Zn1  1  0.25000000  0.25000000  0.20050000  1.0 0.7300610042
Zn  Zn2  1  0.25000000  0.75000000  0.70050000  1.0 0.7300610042
Zn  Zn3  1  0.75000000  0.75000000  0.56390000  1.0 0.7354091303
Zn  Zn4  1  0.75000000  0.25000000  0.06390000  1.0 0.7354091303
Zn  Zn5  1  0.75000000  0.25000000  0.29950000  1.0 0.7300610042
Zn  Zn6  1  0.75000000  0.75000000  0.79950000  1.0 0.7300610042
Zn  Zn7  1  0.25000000  0.75000000  0.93610000  1.0 0.7300610042
Zn  Zn8  1  0.25000000  0.25000000  0.43610000  1.0 0.7300610042
H  H1  1  0.39880000  0.01300000  0.16060000  1.0 0.0989829385
H  H2  1  0.10120000  0.48700000  0.16060000  1.0 0.0989829385
H  H3  1  0.39880000  0.98700000  0.66060000  1.0 0.0989829385
H  H4  1  0.10120000  0.51300000  0.66060000  1.0 0.0989829385
H  H5  1  0.56120000  0.08540000  0.17430000  1.0 0.0989829385
H  H6  1  0.93880000  0.41460000  0.17430000  1.0 0.0989829385
H  H7  1  0.56120000  0.91460000  0.67430000  1.0 0.0989829385
H  H8  1  0.93880000  0.58540000  0.67430000  1.0 0.0989829385
H  H9  1  0.59200000  0.94870000  0.15230000  1.0 0.0890301908
H  H10  1  0.90800000  0.55130000  0.15230000  1.0 0.0890301908
H  H11  1  0.59200000  0.05130000  0.65230000  1.0 0.0890301908
H  H12  1  0.90800000  0.44870000  0.65230000  1.0 0.0890301908
H  H13  1  0.68970000  0.00250000  0.12450000  1.0 0.0890301908
H  H14  1  0.81030000  0.49750000  0.12450000  1.0 0.0890301908
H  H15  1  0.68970000  0.99750000  0.62450000  1.0 0.0890301908
H  H16  1  0.81030000  0.50250000  0.62450000  1.0 0.0890301908
H  H17  1  0.59290000  0.99630000  0.04190000  1.0 0.0989829385
H  H18  1  0.90710000  0.50370000  0.04190000  1.0 0.0989829385
H  H19  1  0.59290000  0.00370000  0.54190000  1.0 0.0989829385
H  H20  1  0.90710000  0.49630000  0.54190000  1.0 0.0989829385
H  H21  1  0.61520000  0.90320000  0.06320000  1.0 0.0989829385
H  H22  1  0.88480000  0.59680000  0.06320000  1.0 0.0989829385
H  H23  1  0.61520000  0.09680000  0.56320000  1.0 0.0989829385
H  H24  1  0.88480000  0.40320000  0.56320000  1.0 0.0989829385
H  H25  1  0.42850000  0.89520000  0.09620000  1.0 0.0890301908
H  H26  1  0.07150000  0.60480000  0.09620000  1.0 0.0890301908
H  H27  1  0.42850000  0.10480000  0.59620000  1.0 0.0890301908
H  H28  1  0.07150000  0.39520000  0.59620000  1.0 0.0890301908
H  H29  1  0.42470000  0.91700000  0.03400000  1.0 0.0794549714
H  H30  1  0.07530000  0.58300000  0.03400000  1.0 0.0794549714
H  H31  1  0.42470000  0.08300000  0.53400000  1.0 0.0794549714
H  H32  1  0.07530000  0.41700000  0.53400000  1.0 0.0794549714
H  H33  1  0.38920000  0.05890000  0.05250000  1.0 0.108579782
H  H34  1  0.11080000  0.44110000  0.05250000  1.0 0.108579782
H  H35  1  0.38920000  0.94110000  0.55250000  1.0 0.108579782
H  H36  1  0.11080000  0.55890000  0.55250000  1.0 0.108579782
H  H37  1  0.29740000  0.00390000  0.08370000  1.0 0.0890301908
H  H38  1  0.20260000  0.49610000  0.08370000  1.0 0.0890301908
H  H39  1  0.29740000  0.99610000  0.58370000  1.0 0.0890301908
H  H40  1  0.20260000  0.50390000  0.58370000  1.0 0.0890301908
H  H41  1  0.23280000  0.06270000  0.23170000  1.0 0.108579782
H  H42  1  0.26720000  0.43730000  0.23170000  1.0 0.108579782
H  H43  1  0.23280000  0.93730000  0.73170000  1.0 0.108579782
H  H44  1  0.26720000  0.56270000  0.73170000  1.0 0.108579782
H  H45  1  0.14630000  0.98090000  0.29630000  1.0 0.120309092
H  H46  1  0.35370000  0.51910000  0.29630000  1.0 0.120309092
H  H47  1  0.14630000  0.01910000  0.79630000  1.0 0.120309092
H  H48  1  0.35370000  0.48090000  0.79630000  1.0 0.120309092
H  H49  1  0.00690000  0.19150000  0.35670000  1.0 0.1514642294
H  H50  1  0.49310000  0.30850000  0.35670000  1.0 0.1514642294
H  H51  1  0.00690000  0.80850000  0.85670000  1.0 0.1514642294
H  H52  1  0.49310000  0.69150000  0.85670000  1.0 0.1514642294
H  H53  1  0.09720000  0.26590000  0.29140000  1.0 0.108579782
H  H54  1  0.40280000  0.23410000  0.29140000  1.0 0.108579782
H  H55  1  0.09720000  0.73410000  0.79140000  1.0 0.108579782
H  H56  1  0.40280000  0.76590000  0.79140000  1.0 0.108579782
H  H57  1  0.95590000  0.06410000  0.39880000  1.0 0.1296987617
H  H58  1  0.54410000  0.43590000  0.39880000  1.0 0.1296987617
H  H59  1  0.95590000  0.93590000  0.89880000  1.0 0.1296987617
H  H60  1  0.54410000  0.56410000  0.89880000  1.0 0.1296987617
H  H61  1  0.06680000  0.92150000  0.36440000  1.0 0.120309092
H  H62  1  0.43320000  0.57850000  0.36440000  1.0 0.120309092
H  H63  1  0.06680000  0.07850000  0.86440000  1.0 0.120309092
H  H64  1  0.43320000  0.42150000  0.86440000  1.0 0.120309092
H  H65  1  0.99940000  0.79300000  0.40620000  1.0 0.1403014333
H  H66  1  0.50060000  0.70700000  0.40620000  1.0 0.1403014333
H  H67  1  0.99940000  0.20700000  0.90620000  1.0 0.1403014333
H  H68  1  0.50060000  0.29300000  0.90620000  1.0 0.1403014333
H  H69  1  0.90590000  0.72250000  0.47250000  1.0 0.108579782
H  H70  1  0.59410000  0.77750000  0.47250000  1.0 0.108579782
H  H71  1  0.90590000  0.27750000  0.97250000  1.0 0.108579782
H  H72  1  0.59410000  0.22250000  0.97250000  1.0 0.108579782
H  H73  1  0.79650000  0.93190000  0.53570000  1.0 0.108579782
H  H74  1  0.70350000  0.56810000  0.53570000  1.0 0.108579782
H  H75  1  0.79650000  0.06810000  0.03570000  1.0 0.108579782
H  H76  1  0.70350000  0.43190000  0.03570000  1.0 0.108579782
H  H77  1  0.88890000  0.00810000  0.47010000  1.0 0.1403014333
H  H78  1  0.61110000  0.49190000  0.47010000  1.0 0.1403014333
H  H79  1  0.88890000  0.99190000  0.97010000  1.0 0.1403014333
H  H80  1  0.61110000  0.50810000  0.97010000  1.0 0.1403014333
H  H81  1  0.60120000  0.01300000  0.33940000  1.0 0.0989829385
H  H82  1  0.89880000  0.48700000  0.33940000  1.0 0.0989829385
H  H83  1  0.60120000  0.98700000  0.83940000  1.0 0.0989829385
H  H84  1  0.89880000  0.51300000  0.83940000  1.0 0.0989829385
H  H85  1  0.43880000  0.08540000  0.32570000  1.0 0.0989829385
H  H86  1  0.06120000  0.41460000  0.32570000  1.0 0.0989829385
H  H87  1  0.43880000  0.91460000  0.82570000  1.0 0.0989829385
H  H88  1  0.06120000  0.58540000  0.82570000  1.0 0.0989829385
H  H89  1  0.40800000  0.94870000  0.34770000  1.0 0.0890301908
H  H90  1  0.09200000  0.55130000  0.34770000  1.0 0.0890301908
H  H91  1  0.40800000  0.05130000  0.84770000  1.0 0.0890301908
H  H92  1  0.09200000  0.44870000  0.84770000  1.0 0.0890301908
H  H93  1  0.31030000  0.00250000  0.37550000  1.0 0.0890301908
H  H94  1  0.18970000  0.49750000  0.37550000  1.0 0.0890301908
H  H95  1  0.31030000  0.99750000  0.87550000  1.0 0.0890301908
H  H96  1  0.18970000  0.50250000  0.87550000  1.0 0.0890301908
H  H97  1  0.40710000  0.99630000  0.45810000  1.0 0.0989829385
H  H98  1  0.09290000  0.50370000  0.45810000  1.0 0.0989829385
H  H99  1  0.40710000  0.00370000  0.95810000  1.0 0.0989829385
H  H100  1  0.09290000  0.49630000  0.95810000  1.0 0.0989829385
H  H101  1  0.38480000  0.90320000  0.43680000  1.0 0.0989829385
H  H102  1  0.11520000  0.59680000  0.43680000  1.0 0.0989829385
H  H103  1  0.38480000  0.09680000  0.93680000  1.0 0.0989829385
H  H104  1  0.11520000  0.40320000  0.93680000  1.0 0.0989829385
H  H105  1  0.57150000  0.89520000  0.40380000  1.0 0.0890301908
H  H106  1  0.92850000  0.60480000  0.40380000  1.0 0.0890301908
H  H107  1  0.57150000  0.10480000  0.90380000  1.0 0.0890301908
H  H108  1  0.92850000  0.39520000  0.90380000  1.0 0.0890301908
H  H109  1  0.57530000  0.91700000  0.46600000  1.0 0.0794549714
H  H110  1  0.92470000  0.58300000  0.46600000  1.0 0.0794549714
H  H111  1  0.57530000  0.08300000  0.96600000  1.0 0.0794549714
H  H112  1  0.92470000  0.41700000  0.96600000  1.0 0.0794549714
H  H113  1  0.61080000  0.05890000  0.44750000  1.0 0.108579782
H  H114  1  0.88920000  0.44110000  0.44750000  1.0 0.108579782
H  H115  1  0.61080000  0.94110000  0.94750000  1.0 0.108579782
H  H116  1  0.88920000  0.55890000  0.94750000  1.0 0.108579782
H  H117  1  0.70260000  0.00390000  0.41630000  1.0 0.0890301908
H  H118  1  0.79740000  0.49610000  0.41630000  1.0 0.0890301908
H  H119  1  0.70260000  0.99610000  0.91630000  1.0 0.0890301908
H  H120  1  0.79740000  0.50390000  0.91630000  1.0 0.0890301908
H  H121  1  0.76720000  0.06270000  0.26830000  1.0 0.108579782
H  H122  1  0.73280000  0.43730000  0.26830000  1.0 0.108579782
H  H123  1  0.76720000  0.93730000  0.76830000  1.0 0.108579782
H  H124  1  0.73280000  0.56270000  0.76830000  1.0 0.108579782
H  H125  1  0.85370000  0.98090000  0.20370000  1.0 0.120309092
H  H126  1  0.64630000  0.51910000  0.20370000  1.0 0.120309092
H  H127  1  0.85370000  0.01910000  0.70370000  1.0 0.120309092
H  H128  1  0.64630000  0.48090000  0.70370000  1.0 0.120309092
H  H129  1  0.99310000  0.19150000  0.14330000  1.0 0.1514642294
H  H130  1  0.50690000  0.30850000  0.14330000  1.0 0.1514642294
H  H131  1  0.99310000  0.80850000  0.64330000  1.0 0.1514642294
H  H132  1  0.50690000  0.69150000  0.64330000  1.0 0.1514642294
H  H133  1  0.90280000  0.26590000  0.20860000  1.0 0.108579782
H  H134  1  0.59720000  0.23410000  0.20860000  1.0 0.108579782
H  H135  1  0.90280000  0.73410000  0.70860000  1.0 0.108579782
H  H136  1  0.59720000  0.76590000  0.70860000  1.0 0.108579782
H  H137  1  0.04410000  0.06410000  0.10120000  1.0 0.1296987617
H  H138  1  0.45590000  0.43590000  0.10120000  1.0 0.1296987617
H  H139  1  0.04410000  0.93590000  0.60120000  1.0 0.1296987617
H  H140  1  0.45590000  0.56410000  0.60120000  1.0 0.1296987617
H  H141  1  0.93320000  0.92150000  0.13560000  1.0 0.120309092
H  H142  1  0.56680000  0.57850000  0.13560000  1.0 0.120309092
H  H143  1  0.93320000  0.07850000  0.63560000  1.0 0.120309092
H  H144  1  0.56680000  0.42150000  0.63560000  1.0 0.120309092
H  H145  1  0.00060000  0.79300000  0.09380000  1.0 0.1403014333
H  H146  1  0.49940000  0.70700000  0.09380000  1.0 0.1403014333
H  H147  1  0.00060000  0.20700000  0.59380000  1.0 0.1403014333
H  H148  1  0.49940000  0.29300000  0.59380000  1.0 0.1403014333
H  H149  1  0.09410000  0.72250000  0.02750000  1.0 0.108579782
H  H150  1  0.40590000  0.77750000  0.02750000  1.0 0.108579782
H  H151  1  0.09410000  0.27750000  0.52750000  1.0 0.108579782
H  H152  1  0.40590000  0.22250000  0.52750000  1.0 0.108579782
H  H153  1  0.20350000  0.93190000  0.96430000  1.0 0.108579782
H  H154  1  0.29650000  0.56810000  0.96430000  1.0 0.108579782
H  H155  1  0.20350000  0.06810000  0.46430000  1.0 0.108579782
H  H156  1  0.29650000  0.43190000  0.46430000  1.0 0.108579782
H  H157  1  0.11110000  0.00810000  0.02990000  1.0 0.1403014333
H  H158  1  0.38890000  0.49190000  0.02990000  1.0 0.1403014333
H  H159  1  0.11110000  0.99190000  0.52990000  1.0 0.1403014333
H  H160  1  0.38890000  0.50810000  0.52990000  1.0 0.1403014333
C  C1  1  0.41570000  0.05640000  0.13307000  1.0 -0.1304035255
C  C2  1  0.08430000  0.44360000  0.13307000  1.0 -0.1304035255
C  C3  1  0.41570000  0.94360000  0.63307000  1.0 -0.1304035255
C  C4  1  0.08430000  0.55640000  0.63307000  1.0 -0.1304035255
C  C5  1  0.54370000  0.07010000  0.13666000  1.0 -0.1304035255
C  C6  1  0.95630000  0.42990000  0.13666000  1.0 -0.1304035255
C  C7  1  0.54370000  0.92990000  0.63666000  1.0 -0.1304035255
C  C8  1  0.95630000  0.57010000  0.63666000  1.0 -0.1304035255
C  C9  1  0.60760000  0.99080000  0.12440000  1.0 -0.1892689644
C  C10  1  0.89240000  0.50920000  0.12440000  1.0 -0.1892689644
C  C11  1  0.60760000  0.00920000  0.62440000  1.0 -0.1892689644
C  C12  1  0.89240000  0.49080000  0.62440000  1.0 -0.1892689644
C  C13  1  0.57350000  0.95570000  0.07020000  1.0 -0.1610300886
C  C14  1  0.92650000  0.54430000  0.07020000  1.0 -0.1610300886
C  C15  1  0.57350000  0.04430000  0.57020000  1.0 -0.1610300886
C  C16  1  0.92650000  0.45570000  0.57020000  1.0 -0.1610300886
C  C17  1  0.44670000  0.93860000  0.06940000  1.0 -0.1610300886
C  C18  1  0.05330000  0.56140000  0.06940000  1.0 -0.1610300886
C  C19  1  0.44670000  0.06140000  0.56940000  1.0 -0.1610300886
C  C20  1  0.05330000  0.43860000  0.56940000  1.0 -0.1610300886
C  C21  1  0.37870000  0.01800000  0.08160000  1.0 -0.1892689644
C  C22  1  0.12130000  0.48200000  0.08160000  1.0 -0.1892689644
C  C23  1  0.37870000  0.98200000  0.58160000  1.0 -0.1892689644
C  C24  1  0.12130000  0.51800000  0.58160000  1.0 -0.1892689644
C  C25  1  0.34770000  0.13220000  0.14975000  1.0 0.5630102353
C  C26  1  0.15230000  0.36780000  0.14975000  1.0 0.5630102353
C  C27  1  0.34770000  0.86780000  0.64975000  1.0 0.5630102353
C  C28  1  0.15230000  0.63220000  0.64975000  1.0 0.5630102353
C  C29  1  0.58160000  0.14390000  0.10145000  1.0 0.5686755376
C  C30  1  0.91840000  0.35610000  0.10145000  1.0 0.5686755376
C  C31  1  0.58160000  0.85610000  0.60145000  1.0 0.5686755376
C  C32  1  0.91840000  0.64390000  0.60145000  1.0 0.5686755376
C  C33  1  0.18640000  0.08890000  0.25765000  1.0 0.0890301908
C  C34  1  0.31360000  0.41110000  0.25765000  1.0 0.0890301908
C  C35  1  0.18640000  0.91110000  0.75765000  1.0 0.0890301908
C  C36  1  0.31360000  0.58890000  0.75765000  1.0 0.0890301908
C  C37  1  0.13500000  0.03970000  0.29585000  1.0 -0.2089584796
C  C38  1  0.36500000  0.46030000  0.29585000  1.0 -0.2089584796
C  C39  1  0.13500000  0.96030000  0.79585000  1.0 -0.2089584796
C  C40  1  0.36500000  0.53970000  0.79585000  1.0 -0.2089584796
C  C41  1  0.06520000  0.07870000  0.33426000  1.0 0.1514642294
C  C42  1  0.43480000  0.42130000  0.33426000  1.0 0.1514642294
C  C43  1  0.06520000  0.92130000  0.83426000  1.0 0.1514642294
C  C44  1  0.43480000  0.57870000  0.83426000  1.0 0.1514642294
C  C45  1  0.05290000  0.16310000  0.33157000  1.0 -0.1674665688
C  C46  1  0.44710000  0.33690000  0.33157000  1.0 -0.1674665688
C  C47  1  0.05290000  0.83690000  0.83157000  1.0 -0.1674665688
C  C48  1  0.44710000  0.66310000  0.83157000  1.0 -0.1674665688
C  C49  1  0.10720000  0.20700000  0.29248000  1.0 0.0890301908
C  C50  1  0.39280000  0.29300000  0.29248000  1.0 0.0890301908
C  C51  1  0.10720000  0.79300000  0.79248000  1.0 0.0890301908
C  C52  1  0.39280000  0.70700000  0.79248000  1.0 0.0890301908
C  C53  1  0.00590000  0.03320000  0.37671000  1.0 -0.1304035255
C  C54  1  0.49410000  0.46680000  0.37671000  1.0 -0.1304035255
C  C55  1  0.00590000  0.96680000  0.87671000  1.0 -0.1304035255
C  C56  1  0.49410000  0.53320000  0.87671000  1.0 -0.1304035255
C  C57  1  0.01710000  0.95310000  0.38626000  1.0 -0.1483696858
C  C58  1  0.48290000  0.54690000  0.38626000  1.0 -0.1483696858
C  C59  1  0.01710000  0.04690000  0.88626000  1.0 -0.1483696858
C  C60  1  0.48290000  0.45310000  0.88626000  1.0 -0.1483696858
C  C61  1  0.95440000  0.90820000  0.43055000  1.0 0.1562175946
C  C62  1  0.54560000  0.59180000  0.43055000  1.0 0.1562175946
C  C63  1  0.95440000  0.09180000  0.93055000  1.0 0.1562175946
C  C64  1  0.54560000  0.40820000  0.93055000  1.0 0.1562175946
C  C65  1  0.95810000  0.82330000  0.43225000  1.0 -0.2012736826
C  C66  1  0.54190000  0.67670000  0.43225000  1.0 -0.2012736826
C  C67  1  0.95810000  0.17670000  0.93225000  1.0 -0.2012736826
C  C68  1  0.54190000  0.32330000  0.93225000  1.0 -0.2012736826
C  C69  1  0.90150000  0.78190000  0.47199000  1.0 0.0794549714
C  C70  1  0.59850000  0.71810000  0.47199000  1.0 0.0794549714
C  C71  1  0.90150000  0.21810000  0.97199000  1.0 0.0794549714
C  C72  1  0.59850000  0.28190000  0.97199000  1.0 0.0794549714
C  C73  1  0.83760000  0.90290000  0.50899000  1.0 0.0794549714
C  C74  1  0.66240000  0.59710000  0.50899000  1.0 0.0794549714
C  C75  1  0.83760000  0.09710000  0.00899000  1.0 0.0794549714
C  C76  1  0.66240000  0.40290000  0.00899000  1.0 0.0794549714
C  C77  1  0.89300000  0.94870000  0.46991000  1.0 -0.2012736826
C  C78  1  0.60700000  0.55130000  0.46991000  1.0 -0.2012736826
C  C79  1  0.89300000  0.05130000  0.96991000  1.0 -0.2012736826
C  C80  1  0.60700000  0.44870000  0.96991000  1.0 -0.2012736826
C  C81  1  0.58430000  0.05640000  0.36693000  1.0 -0.1304035255
C  C82  1  0.91570000  0.44360000  0.36693000  1.0 -0.1304035255
C  C83  1  0.58430000  0.94360000  0.86693000  1.0 -0.1304035255
C  C84  1  0.91570000  0.55640000  0.86693000  1.0 -0.1304035255
C  C85  1  0.45630000  0.07010000  0.36334000  1.0 -0.1304035255
C  C86  1  0.04370000  0.42990000  0.36334000  1.0 -0.1304035255
C  C87  1  0.45630000  0.92990000  0.86334000  1.0 -0.1304035255
C  C88  1  0.04370000  0.57010000  0.86334000  1.0 -0.1304035255
C  C89  1  0.39240000  0.99080000  0.37560000  1.0 -0.1892689644
C  C90  1  0.10760000  0.50920000  0.37560000  1.0 -0.1892689644
C  C91  1  0.39240000  0.00920000  0.87560000  1.0 -0.1892689644
C  C92  1  0.10760000  0.49080000  0.87560000  1.0 -0.1892689644
C  C93  1  0.42650000  0.95570000  0.42980000  1.0 -0.1610300886
C  C94  1  0.07350000  0.54430000  0.42980000  1.0 -0.1610300886
C  C95  1  0.42650000  0.04430000  0.92980000  1.0 -0.1610300886
C  C96  1  0.07350000  0.45570000  0.92980000  1.0 -0.1610300886
C  C97  1  0.55330000  0.93860000  0.43060000  1.0 -0.1610300886
C  C98  1  0.94670000  0.56140000  0.43060000  1.0 -0.1610300886
C  C99  1  0.55330000  0.06140000  0.93060000  1.0 -0.1610300886
C  C100  1  0.94670000  0.43860000  0.93060000  1.0 -0.1610300886
C  C101  1  0.62130000  0.01800000  0.41840000  1.0 -0.1892689644
C  C102  1  0.87870000  0.48200000  0.41840000  1.0 -0.1892689644
C  C103  1  0.62130000  0.98200000  0.91840000  1.0 -0.1892689644
C  C104  1  0.87870000  0.51800000  0.91840000  1.0 -0.1892689644
C  C105  1  0.65230000  0.13220000  0.35025000  1.0 0.5630102353
C  C106  1  0.84770000  0.36780000  0.35025000  1.0 0.5630102353
C  C107  1  0.65230000  0.86780000  0.85025000  1.0 0.5630102353
C  C108  1  0.84770000  0.63220000  0.85025000  1.0 0.5630102353
C  C109  1  0.41840000  0.14390000  0.39855000  1.0 0.5686755376
C  C110  1  0.08160000  0.35610000  0.39855000  1.0 0.5686755376
C  C111  1  0.41840000  0.85610000  0.89855000  1.0 0.5686755376
C  C112  1  0.08160000  0.64390000  0.89855000  1.0 0.5686755376
C  C113  1  0.81360000  0.08890000  0.24235000  1.0 0.0890301908
C  C114  1  0.68640000  0.41110000  0.24235000  1.0 0.0890301908
C  C115  1  0.81360000  0.91110000  0.74235000  1.0 0.0890301908
C  C116  1  0.68640000  0.58890000  0.74235000  1.0 0.0890301908
C  C117  1  0.86500000  0.03970000  0.20415000  1.0 -0.2089584796
C  C118  1  0.63500000  0.46030000  0.20415000  1.0 -0.2089584796
C  C119  1  0.86500000  0.96030000  0.70415000  1.0 -0.2089584796
C  C120  1  0.63500000  0.53970000  0.70415000  1.0 -0.2089584796
C  C121  1  0.93480000  0.07870000  0.16574000  1.0 0.1514642294
C  C122  1  0.56520000  0.42130000  0.16574000  1.0 0.1514642294
C  C123  1  0.93480000  0.92130000  0.66574000  1.0 0.1514642294
C  C124  1  0.56520000  0.57870000  0.66574000  1.0 0.1514642294
C  C125  1  0.94710000  0.16310000  0.16843000  1.0 -0.1674665688
C  C126  1  0.55290000  0.33690000  0.16843000  1.0 -0.1674665688
C  C127  1  0.94710000  0.83690000  0.66843000  1.0 -0.1674665688
C  C128  1  0.55290000  0.66310000  0.66843000  1.0 -0.1674665688
C  C129  1  0.89280000  0.20700000  0.20752000  1.0 0.0890301908
C  C130  1  0.60720000  0.29300000  0.20752000  1.0 0.0890301908
C  C131  1  0.89280000  0.79300000  0.70752000  1.0 0.0890301908
C  C132  1  0.60720000  0.70700000  0.70752000  1.0 0.0890301908
C  C133  1  0.99410000  0.03320000  0.12329000  1.0 -0.1304035255
C  C134  1  0.50590000  0.46680000  0.12329000  1.0 -0.1304035255
C  C135  1  0.99410000  0.96680000  0.62329000  1.0 -0.1304035255
C  C136  1  0.50590000  0.53320000  0.62329000  1.0 -0.1304035255
C  C137  1  0.98290000  0.95310000  0.11374000  1.0 -0.1483696858
C  C138  1  0.51710000  0.54690000  0.11374000  1.0 -0.1483696858
C  C139  1  0.98290000  0.04690000  0.61374000  1.0 -0.1483696858
C  C140  1  0.51710000  0.45310000  0.61374000  1.0 -0.1483696858
C  C141  1  0.04560000  0.90820000  0.06945000  1.0 0.1562175946
C  C142  1  0.45440000  0.59180000  0.06945000  1.0 0.1562175946
C  C143  1  0.04560000  0.09180000  0.56945000  1.0 0.1562175946
C  C144  1  0.45440000  0.40820000  0.56945000  1.0 0.1562175946
C  C145  1  0.04190000  0.82330000  0.06775000  1.0 -0.2012736826
C  C146  1  0.45810000  0.67670000  0.06775000  1.0 -0.2012736826
C  C147  1  0.04190000  0.17670000  0.56775000  1.0 -0.2012736826
C  C148  1  0.45810000  0.32330000  0.56775000  1.0 -0.2012736826
C  C149  1  0.09850000  0.78190000  0.02801000  1.0 0.0794549714
C  C150  1  0.40150000  0.71810000  0.02801000  1.0 0.0794549714
C  C151  1  0.09850000  0.21810000  0.52801000  1.0 0.0794549714
C  C152  1  0.40150000  0.28190000  0.52801000  1.0 0.0794549714
C  C153  1  0.16240000  0.90290000  0.99101000  1.0 0.0794549714
C  C154  1  0.33760000  0.59710000  0.99101000  1.0 0.0794549714
C  C155  1  0.16240000  0.09710000  0.49101000  1.0 0.0794549714
C  C156  1  0.33760000  0.40290000  0.49101000  1.0 0.0794549714
C  C157  1  0.10700000  0.94870000  0.03009000  1.0 -0.2012736826
C  C158  1  0.39300000  0.55130000  0.03009000  1.0 -0.2012736826
C  C159  1  0.10700000  0.05130000  0.53009000  1.0 -0.2012736826
C  C160  1  0.39300000  0.44870000  0.53009000  1.0 -0.2012736826
N  N1  1  0.17350000  0.17188000  0.25572000  1.0 -0.2307158514
N  N2  1  0.32650000  0.32812000  0.25572000  1.0 -0.2307158514
N  N3  1  0.17350000  0.82812000  0.75572000  1.0 -0.2307158514
N  N4  1  0.32650000  0.67188000  0.75572000  1.0 -0.2307158514
N  N5  1  0.84040000  0.81927000  0.51008000  1.0 -0.2307158514
N  N6  1  0.65960000  0.68073000  0.51008000  1.0 -0.2307158514
N  N7  1  0.84040000  0.18073000  0.01008000  1.0 -0.2307158514
N  N8  1  0.65960000  0.31927000  0.01008000  1.0 -0.2307158514
N  N9  1  0.82650000  0.17188000  0.24428000  1.0 -0.2307158514
N  N10  1  0.67350000  0.32812000  0.24428000  1.0 -0.2307158514
N  N11  1  0.82650000  0.82812000  0.74428000  1.0 -0.2307158514
N  N12  1  0.67350000  0.67188000  0.74428000  1.0 -0.2307158514
N  N13  1  0.15960000  0.81927000  0.98992000  1.0 -0.2307158514
N  N14  1  0.34040000  0.68073000  0.98992000  1.0 -0.2307158514
N  N15  1  0.15960000  0.18073000  0.48992000  1.0 -0.2307158514
N  N16  1  0.34040000  0.31927000  0.48992000  1.0 -0.2307158514
O  O1  1  0.39150000  0.17750000  0.18561000  1.0 -0.5538685425
O  O2  1  0.10850000  0.32250000  0.18561000  1.0 -0.5538685425
O  O3  1  0.39150000  0.82250000  0.68561000  1.0 -0.5538685425
O  O4  1  0.10850000  0.67750000  0.68561000  1.0 -0.5538685425
O  O5  1  0.24940000  0.14627000  0.13374000  1.0 -0.5437769806
O  O6  1  0.25060000  0.35373000  0.13374000  1.0 -0.5437769806
O  O7  1  0.24940000  0.85373000  0.63374000  1.0 -0.5437769806
O  O8  1  0.25060000  0.64627000  0.63374000  1.0 -0.5437769806
O  O9  1  0.68550000  0.16122000  0.10609000  1.0 -0.5625214084
O  O10  1  0.81450000  0.33878000  0.10609000  1.0 -0.5625214084
O  O11  1  0.68550000  0.83878000  0.60609000  1.0 -0.5625214084
O  O12  1  0.81450000  0.66122000  0.60609000  1.0 -0.5625214084
O  O13  1  0.51650000  0.18321000  0.07243000  1.0 -0.5437769806
O  O14  1  0.98350000  0.31679000  0.07243000  1.0 -0.5437769806
O  O15  1  0.51650000  0.81679000  0.57243000  1.0 -0.5437769806
O  O16  1  0.98350000  0.68321000  0.57243000  1.0 -0.5437769806
O  O17  1  0.60850000  0.17750000  0.31439000  1.0 -0.5538685425
O  O18  1  0.89150000  0.32250000  0.31439000  1.0 -0.5538685425
O  O19  1  0.60850000  0.82250000  0.81439000  1.0 -0.5538685425
O  O20  1  0.89150000  0.67750000  0.81439000  1.0 -0.5538685425
O  O21  1  0.75060000  0.14627000  0.36626000  1.0 -0.5437769806
O  O22  1  0.74940000  0.35373000  0.36626000  1.0 -0.5437769806
O  O23  1  0.75060000  0.85373000  0.86626000  1.0 -0.5437769806
O  O24  1  0.74940000  0.64627000  0.86626000  1.0 -0.5437769806
O  O25  1  0.31450000  0.16122000  0.39391000  1.0 -0.5625214084
O  O26  1  0.18550000  0.33878000  0.39391000  1.0 -0.5625214084
O  O27  1  0.31450000  0.83878000  0.89391000  1.0 -0.5625214084
O  O28  1  0.18550000  0.66122000  0.89391000  1.0 -0.5625214084
O  O29  1  0.48350000  0.18321000  0.42757000  1.0 -0.5437769806
O  O30  1  0.01650000  0.31679000  0.42757000  1.0 -0.5437769806
O  O31  1  0.48350000  0.81679000  0.92757000  1.0 -0.5437769806
O  O32  1  0.01650000  0.68321000  0.92757000  1.0 -0.5437769806
