# DDEC6 charges by PACMAN v1.1 (https://github.com/mtap-research/PACMAN-charge/)
data_c8ce00213d2_2_FSR_pacman
_symmetry_space_group_name_H-M   'P 1'
_cell_length_a   10.21860000
_cell_length_b   15.23430000
_cell_length_c   36.85640000
_cell_angle_alpha   90.00000000
_cell_angle_beta   90.00000000
_cell_angle_gamma   90.00000000
_symmetry_Int_Tables_number   1
_chemical_formula_structural   Zn2H13C34(N2O7)2
_chemical_formula_sum   'Zn8 H52 C136 N16 O56'
_cell_volume   5737.55439116
_cell_formula_units_Z   4
loop_
 _symmetry_equiv_pos_site_id
 _symmetry_equiv_pos_as_xyz
  1  'x, y, z'
loop_
 _atom_site_type_symbol
 _atom_site_label
 _atom_site_symmetry_multiplicity
 _atom_site_fract_x
 _atom_site_fract_y
 _atom_site_fract_z
 _atom_site_occupancy
 _atom_site_charge
Zn  Zn1  1  0.65193000  0.75000000  0.77734000  1.0 0.9559282714
Zn  Zn2  1  0.34807000  0.25000000  0.22266000  1.0 0.9559282714
Zn  Zn3  1  0.15193000  0.25000000  0.72266000  1.0 0.9559282714
Zn  Zn4  1  0.84807000  0.75000000  0.27734000  1.0 0.9559282714
Zn  Zn5  1  0.86699000  0.75000000  0.72212000  1.0 0.9396688544
Zn  Zn6  1  0.13301000  0.25000000  0.27788000  1.0 0.9396688544
Zn  Zn7  1  0.36699000  0.25000000  0.77788000  1.0 0.9396688544
Zn  Zn8  1  0.63301000  0.75000000  0.22212000  1.0 0.9396688544
H  H1  1  0.73140000  0.35210000  0.53100000  1.0 0.1318918911
H  H2  1  0.26860000  0.85210000  0.46900000  1.0 0.1318918911
H  H3  1  0.23140000  0.64790000  0.96900000  1.0 0.1318918911
H  H4  1  0.76860000  0.14790000  0.03100000  1.0 0.1318918911
H  H5  1  0.26860000  0.64790000  0.46900000  1.0 0.1318918911
H  H6  1  0.73140000  0.14790000  0.53100000  1.0 0.1318918911
H  H7  1  0.76860000  0.35210000  0.03100000  1.0 0.1318918911
H  H8  1  0.23140000  0.85210000  0.96900000  1.0 0.1318918911
H  H9  1  0.27060000  0.64470000  0.53320000  1.0 0.1318918911
H  H10  1  0.72940000  0.14470000  0.46680000  1.0 0.1318918911
H  H11  1  0.77060000  0.35530000  0.96680000  1.0 0.1318918911
H  H12  1  0.22940000  0.85530000  0.03320000  1.0 0.1318918911
H  H13  1  0.72940000  0.35530000  0.46680000  1.0 0.1318918911
H  H14  1  0.27060000  0.85530000  0.53320000  1.0 0.1318918911
H  H15  1  0.22940000  0.64470000  0.03320000  1.0 0.1318918911
H  H16  1  0.77060000  0.14470000  0.96680000  1.0 0.1318918911
H  H17  1  0.37840000  0.39990000  0.64010000  1.0 0.1472440098
H  H18  1  0.62160000  0.89990000  0.35990000  1.0 0.1472440098
H  H19  1  0.87840000  0.60010000  0.85990000  1.0 0.1472440098
H  H20  1  0.12160000  0.10010000  0.14010000  1.0 0.1472440098
H  H21  1  0.62160000  0.60010000  0.35990000  1.0 0.1472440098
H  H22  1  0.37840000  0.10010000  0.64010000  1.0 0.1472440098
H  H23  1  0.12160000  0.39990000  0.14010000  1.0 0.1472440098
H  H24  1  0.87840000  0.89990000  0.85990000  1.0 0.1472440098
H  H25  1  0.51090000  0.50070000  0.73520000  1.0 0.1407587916
H  H26  1  0.48910000  0.00070000  0.26480000  1.0 0.1407587916
H  H27  1  0.01090000  0.49930000  0.76480000  1.0 0.1407587916
H  H28  1  0.98910000  0.99930000  0.23520000  1.0 0.1407587916
H  H29  1  0.48910000  0.49930000  0.26480000  1.0 0.1407587916
H  H30  1  0.51090000  0.99930000  0.73520000  1.0 0.1407587916
H  H31  1  0.98910000  0.50070000  0.23520000  1.0 0.1407587916
H  H32  1  0.01090000  0.00070000  0.76480000  1.0 0.1407587916
H  H33  1  0.63870000  0.59980000  0.63950000  1.0 0.1472440098
H  H34  1  0.36130000  0.09980000  0.36050000  1.0 0.1472440098
H  H35  1  0.13870000  0.40020000  0.86050000  1.0 0.1472440098
H  H36  1  0.86130000  0.90020000  0.13950000  1.0 0.1472440098
H  H37  1  0.36130000  0.40020000  0.36050000  1.0 0.1472440098
H  H38  1  0.63870000  0.90020000  0.63950000  1.0 0.1472440098
H  H39  1  0.86130000  0.59980000  0.13950000  1.0 0.1472440098
H  H40  1  0.13870000  0.09980000  0.86050000  1.0 0.1472440098
H  H41  1  0.11860000  0.69040000  0.82940000  0.5 0.0638181099
H  H42  1  0.88140000  0.19040000  0.17060000  0.5 0.0638181099
H  H43  1  0.61860000  0.30960000  0.67060000  0.5 0.0638181099
H  H44  1  0.38140000  0.80960000  0.32940000  0.5 0.0638181099
H  H45  1  0.88140000  0.30960000  0.17060000  0.5 0.0638181099
H  H46  1  0.11860000  0.80960000  0.82940000  0.5 0.0638181099
H  H47  1  0.38140000  0.69040000  0.32940000  0.5 0.0638181099
H  H48  1  0.61860000  0.19040000  0.67060000  0.5 0.0638181099
H  H49  1  0.15390000  0.77020000  0.85590000  0.5 0.0638181099
H  H50  1  0.84610000  0.27020000  0.14410000  0.5 0.0638181099
H  H51  1  0.65390000  0.22980000  0.64410000  0.5 0.0638181099
H  H52  1  0.34610000  0.72980000  0.35590000  0.5 0.0638181099
H  H53  1  0.84610000  0.22980000  0.14410000  0.5 0.0638181099
H  H54  1  0.15390000  0.72980000  0.85590000  0.5 0.0638181099
H  H55  1  0.34610000  0.77020000  0.35590000  0.5 0.0638181099
H  H56  1  0.65390000  0.27020000  0.64410000  0.5 0.0638181099
H  H57  1  0.10050000  0.78940000  0.81590000  0.5 0.0711524912
H  H58  1  0.89950000  0.28940000  0.18410000  0.5 0.0711524912
H  H59  1  0.60050000  0.21060000  0.68410000  0.5 0.0711524912
H  H60  1  0.39950000  0.71060000  0.31590000  0.5 0.0711524912
H  H61  1  0.89950000  0.21060000  0.18410000  0.5 0.0711524912
H  H62  1  0.10050000  0.71060000  0.81590000  0.5 0.0711524912
H  H63  1  0.39950000  0.78940000  0.31590000  0.5 0.0711524912
H  H64  1  0.60050000  0.28940000  0.68410000  0.5 0.0711524912
C  C1  1  0.67330000  0.39020000  0.51843000  1.0 -0.087385679
C  C2  1  0.32670000  0.89020000  0.48157000  1.0 -0.087385679
C  C3  1  0.17330000  0.60980000  0.98157000  1.0 -0.087385679
C  C4  1  0.82670000  0.10980000  0.01843000  1.0 -0.087385679
C  C5  1  0.32670000  0.60980000  0.48157000  1.0 -0.087385679
C  C6  1  0.67330000  0.10980000  0.51843000  1.0 -0.087385679
C  C7  1  0.82670000  0.39020000  0.01843000  1.0 -0.087385679
C  C8  1  0.17330000  0.89020000  0.98157000  1.0 -0.087385679
C  C9  1  0.59030000  0.44470000  0.53733000  1.0 -0.0447011425
C  C10  1  0.40970000  0.94470000  0.46267000  1.0 -0.0447011425
C  C11  1  0.09030000  0.55530000  0.96267000  1.0 -0.0453041776
C  C12  1  0.90970000  0.05530000  0.03733000  1.0 -0.0447011425
C  C13  1  0.40970000  0.55530000  0.46267000  1.0 -0.0447011425
C  C14  1  0.59030000  0.05530000  0.53733000  1.0 -0.0447011425
C  C15  1  0.90970000  0.44470000  0.03733000  1.0 -0.0447011425
C  C16  1  0.09030000  0.94470000  0.96267000  1.0 -0.0453041776
C  C17  1  0.50140000  0.50000000  0.51925000  1.0 0.0233795035
C  C18  1  0.49860000  0.00000000  0.48075000  1.0 0.0233795035
C  C19  1  0.00140000  0.50000000  0.98075000  1.0 0.0233795035
C  C20  1  0.99860000  0.00000000  0.01925000  1.0 0.0233795035
C  C21  1  0.49860000  0.50000000  0.48075000  1.0 0.0233795035
C  C22  1  0.50140000  0.00000000  0.51925000  1.0 0.0233795035
C  C23  1  0.99860000  0.50000000  0.01925000  1.0 0.0233795035
C  C24  1  0.00140000  0.00000000  0.98075000  1.0 0.0233795035
C  C25  1  0.41550000  0.55510000  0.53825000  1.0 -0.0556024819
C  C26  1  0.58450000  0.05510000  0.46175000  1.0 -0.0556024819
C  C27  1  0.91550000  0.44490000  0.96175000  1.0 -0.0556024819
C  C28  1  0.08450000  0.94490000  0.03825000  1.0 -0.0556024819
C  C29  1  0.58450000  0.44490000  0.46175000  1.0 -0.0556024819
C  C30  1  0.41550000  0.94490000  0.53825000  1.0 -0.0556024819
C  C31  1  0.08450000  0.55510000  0.03825000  1.0 -0.0556024819
C  C32  1  0.91550000  0.05510000  0.96175000  1.0 -0.0556024819
C  C33  1  0.32920000  0.60840000  0.51996000  1.0 -0.0844119464
C  C34  1  0.67080000  0.10840000  0.48004000  1.0 -0.0844119464
C  C35  1  0.82920000  0.39160000  0.98004000  1.0 -0.0844119464
C  C36  1  0.17080000  0.89160000  0.01996000  1.0 -0.0844119464
C  C37  1  0.67080000  0.39160000  0.48004000  1.0 -0.0844119464
C  C38  1  0.32920000  0.89160000  0.51996000  1.0 -0.0844119464
C  C39  1  0.17080000  0.60840000  0.01996000  1.0 -0.0844119464
C  C40  1  0.82920000  0.10840000  0.98004000  1.0 -0.0844119464
C  C41  1  0.41660000  0.55600000  0.57876000  1.0 0.4193272495
C  C42  1  0.58340000  0.05600000  0.42124000  1.0 0.4193272495
C  C43  1  0.91660000  0.44400000  0.92124000  1.0 0.4193272495
C  C44  1  0.08340000  0.94400000  0.07876000  1.0 0.4193272495
C  C45  1  0.58340000  0.44400000  0.42124000  1.0 0.4193272495
C  C46  1  0.41660000  0.94400000  0.57876000  1.0 0.4193272495
C  C47  1  0.08340000  0.55600000  0.07876000  1.0 0.4193272495
C  C48  1  0.91660000  0.05600000  0.92124000  1.0 0.4193272495
C  C49  1  0.59430000  0.44410000  0.57787000  1.0 0.4270562061
C  C50  1  0.40570000  0.94410000  0.42213000  1.0 0.4270562061
C  C51  1  0.09430000  0.55590000  0.92213000  1.0 0.4270562061
C  C52  1  0.90570000  0.05590000  0.07787000  1.0 0.4270562061
C  C53  1  0.40570000  0.55590000  0.42213000  1.0 0.4270562061
C  C54  1  0.59430000  0.05590000  0.57787000  1.0 0.4270562061
C  C55  1  0.90570000  0.44410000  0.07787000  1.0 0.4270562061
C  C56  1  0.09430000  0.94410000  0.92213000  1.0 0.4270562061
C  C57  1  0.50870000  0.50040000  0.63433000  1.0 0.1649353259
C  C58  1  0.49130000  0.00040000  0.36567000  1.0 0.1649353259
C  C59  1  0.00870000  0.49960000  0.86567000  1.0 0.1649353259
C  C60  1  0.99130000  0.99960000  0.13433000  1.0 0.1649353259
C  C61  1  0.49130000  0.49960000  0.36567000  1.0 0.1649353259
C  C62  1  0.50870000  0.99960000  0.63433000  1.0 0.1649353259
C  C63  1  0.99130000  0.50040000  0.13433000  1.0 0.1649353259
C  C64  1  0.00870000  0.00040000  0.86567000  1.0 0.1649353259
C  C65  1  0.43240000  0.44000000  0.65292000  1.0 -0.1686809964
C  C66  1  0.56760000  0.94000000  0.34708000  1.0 -0.1686809964
C  C67  1  0.93240000  0.56000000  0.84708000  1.0 -0.1686809964
C  C68  1  0.06760000  0.06000000  0.15292000  1.0 -0.1686809964
C  C69  1  0.56760000  0.56000000  0.34708000  1.0 -0.1686809964
C  C70  1  0.43240000  0.06000000  0.65292000  1.0 -0.1686809964
C  C71  1  0.06760000  0.44000000  0.15292000  1.0 -0.1686809964
C  C72  1  0.93240000  0.94000000  0.84708000  1.0 -0.1686809964
C  C73  1  0.43600000  0.43890000  0.69074000  1.0 -0.0116018557
C  C74  1  0.56400000  0.93890000  0.30926000  1.0 -0.0116018557
C  C75  1  0.93600000  0.56110000  0.80926000  1.0 -0.0116018557
C  C76  1  0.06400000  0.06110000  0.19074000  1.0 -0.0116018557
C  C77  1  0.56400000  0.56110000  0.30926000  1.0 -0.0116018557
C  C78  1  0.43600000  0.06110000  0.69074000  1.0 -0.0116018557
C  C79  1  0.06400000  0.43890000  0.19074000  1.0 -0.0116018557
C  C80  1  0.93600000  0.93890000  0.80926000  1.0 -0.0116018557
C  C81  1  0.36310000  0.36960000  0.71086000  1.0 0.5892257296
C  C82  1  0.63690000  0.86960000  0.28914000  1.0 0.5892257296
C  C83  1  0.86310000  0.63040000  0.78914000  1.0 0.5892257296
C  C84  1  0.13690000  0.13040000  0.21086000  1.0 0.5892257296
C  C85  1  0.63690000  0.63040000  0.28914000  1.0 0.5892257296
C  C86  1  0.36310000  0.13040000  0.71086000  1.0 0.5892257296
C  C87  1  0.13690000  0.36960000  0.21086000  1.0 0.5892257296
C  C88  1  0.86310000  0.86960000  0.78914000  1.0 0.5892257296
C  C89  1  0.51040000  0.50020000  0.70939000  1.0 -0.121849974
C  C90  1  0.48960000  0.00020000  0.29061000  1.0 -0.121849974
C  C91  1  0.01040000  0.49980000  0.79061000  1.0 -0.121849974
C  C92  1  0.98960000  0.99980000  0.20939000  1.0 -0.121849974
C  C93  1  0.48960000  0.49980000  0.29061000  1.0 -0.121849974
C  C94  1  0.51040000  0.99980000  0.70939000  1.0 -0.121849974
C  C95  1  0.98960000  0.50020000  0.20939000  1.0 -0.121849974
C  C96  1  0.01040000  0.00020000  0.79061000  1.0 -0.121849974
C  C97  1  0.58360000  0.56060000  0.69026000  1.0 0.0092391415
C  C98  1  0.41640000  0.06060000  0.30974000  1.0 0.0092391415
C  C99  1  0.08360000  0.43940000  0.80974000  1.0 0.0092391415
C  C100  1  0.91640000  0.93940000  0.19026000  1.0 0.0092391415
C  C101  1  0.41640000  0.43940000  0.30974000  1.0 0.0092391415
C  C102  1  0.58360000  0.93940000  0.69026000  1.0 0.0092391415
C  C103  1  0.91640000  0.56060000  0.19026000  1.0 0.0092391415
C  C104  1  0.08360000  0.06060000  0.80974000  1.0 0.0092391415
C  C105  1  0.58520000  0.55970000  0.65249000  1.0 -0.1686809964
C  C106  1  0.41480000  0.05970000  0.34751000  1.0 -0.1649527497
C  C107  1  0.08520000  0.44030000  0.84751000  1.0 -0.1649527497
C  C108  1  0.91480000  0.94030000  0.15249000  1.0 -0.1649527497
C  C109  1  0.41480000  0.44030000  0.34751000  1.0 -0.1649527497
C  C110  1  0.58520000  0.94030000  0.65249000  1.0 -0.1649527497
C  C111  1  0.91480000  0.55970000  0.15249000  1.0 -0.1649527497
C  C112  1  0.08520000  0.05970000  0.84751000  1.0 -0.1686809964
C  C113  1  0.65770000  0.63180000  0.71041000  1.0 0.5892257296
C  C114  1  0.34230000  0.13180000  0.28959000  1.0 0.5892257296
C  C115  1  0.15770000  0.36820000  0.78959000  1.0 0.5892257296
C  C116  1  0.84230000  0.86820000  0.21041000  1.0 0.5892257296
C  C117  1  0.34230000  0.36820000  0.28959000  1.0 0.5892257296
C  C118  1  0.65770000  0.86820000  0.71041000  1.0 0.5892257296
C  C119  1  0.84230000  0.63180000  0.21041000  1.0 0.5892257296
C  C120  1  0.15770000  0.13180000  0.78959000  1.0 0.5892257296
C  C121  1  0.36860000  0.75000000  0.67060000  1.0 -0.0116018557
C  C122  1  0.63140000  0.25000000  0.32940000  1.0 -0.0116018557
C  C123  1  0.86860000  0.25000000  0.82940000  1.0 -0.0116018557
C  C124  1  0.13140000  0.75000000  0.17060000  1.0 -0.0116018557
C  C125  1  0.13410000  0.75000000  0.68900000  1.0 0.5380096638
C  C126  1  0.86590000  0.25000000  0.31100000  1.0 0.5380096638
C  C127  1  0.63410000  0.25000000  0.81100000  1.0 0.5380096638
C  C128  1  0.36590000  0.75000000  0.18900000  1.0 0.5380096638
C  C129  1  0.38370000  0.75000000  0.81050000  1.0 0.5268872285
C  C130  1  0.61630000  0.25000000  0.18950000  1.0 0.5268872285
C  C131  1  0.88370000  0.25000000  0.68950000  1.0 0.5268872285
C  C132  1  0.11630000  0.75000000  0.31050000  1.0 0.5268872285
C  C133  1  0.15430000  0.75000000  0.83070000  1.0 -0.1927507467
C  C134  1  0.84570000  0.25000000  0.16930000  1.0 -0.1927507467
C  C135  1  0.65430000  0.25000000  0.66930000  1.0 -0.1927507467
C  C136  1  0.34570000  0.75000000  0.33070000  1.0 -0.1927507467
N  N1  1  0.50630000  0.50080000  0.59528000  1.0 -0.2207095719
N  N2  1  0.49370000  0.00080000  0.40472000  1.0 -0.2207095719
N  N3  1  0.00630000  0.49920000  0.90472000  1.0 -0.2207095719
N  N4  1  0.99370000  0.99920000  0.09528000  1.0 -0.2207095719
N  N5  1  0.49370000  0.49920000  0.40472000  1.0 -0.2207095719
N  N6  1  0.50630000  0.99920000  0.59528000  1.0 -0.2207095719
N  N7  1  0.99370000  0.50080000  0.09528000  1.0 -0.2207095719
N  N8  1  0.00630000  0.00080000  0.90472000  1.0 -0.2207095719
N  N9  1  0.28150000  0.75000000  0.81760000  1.0 -0.270526836
N  N10  1  0.71850000  0.25000000  0.18240000  1.0 -0.270526836
N  N11  1  0.78150000  0.25000000  0.68240000  1.0 -0.270526836
N  N12  1  0.21850000  0.75000000  0.31760000  1.0 -0.270526836
N  N13  1  0.23970000  0.75000000  0.68300000  1.0 -0.2287537999
N  N14  1  0.76030000  0.25000000  0.31700000  1.0 -0.2287537999
N  N15  1  0.73970000  0.25000000  0.81700000  1.0 -0.2287537999
N  N16  1  0.26030000  0.75000000  0.18300000  1.0 -0.2287537999
O  O1  1  0.66830000  0.39970000  0.59490000  1.0 -0.3836490906
O  O2  1  0.33170000  0.89970000  0.40510000  1.0 -0.3836490906
O  O3  1  0.16830000  0.60030000  0.90510000  1.0 -0.3836490906
O  O4  1  0.83170000  0.10030000  0.09490000  1.0 -0.3836490906
O  O5  1  0.33170000  0.60030000  0.40510000  1.0 -0.3836490906
O  O6  1  0.66830000  0.10030000  0.59490000  1.0 -0.3836490906
O  O7  1  0.83170000  0.39970000  0.09490000  1.0 -0.3836490906
O  O8  1  0.16830000  0.89970000  0.90510000  1.0 -0.3836490906
O  O9  1  0.34350000  0.59910000  0.59642000  1.0 -0.3881469465
O  O10  1  0.65650000  0.09910000  0.40358000  1.0 -0.3881469465
O  O11  1  0.84350000  0.40090000  0.90358000  1.0 -0.3881469465
O  O12  1  0.15650000  0.90090000  0.09642000  1.0 -0.3881469465
O  O13  1  0.65650000  0.40090000  0.40358000  1.0 -0.3881469465
O  O14  1  0.34350000  0.90090000  0.59642000  1.0 -0.3881469465
O  O15  1  0.15650000  0.59910000  0.09642000  1.0 -0.3881469465
O  O16  1  0.84350000  0.09910000  0.90358000  1.0 -0.3881469465
O  O17  1  0.26020000  0.34200000  0.69641000  1.0 -0.5244406856
O  O18  1  0.73980000  0.84200000  0.30359000  1.0 -0.5244406856
O  O19  1  0.76020000  0.65800000  0.80359000  1.0 -0.5244406856
O  O20  1  0.23980000  0.15800000  0.19641000  1.0 -0.5244406856
O  O21  1  0.73980000  0.65800000  0.30359000  1.0 -0.5244406856
O  O22  1  0.26020000  0.15800000  0.69641000  1.0 -0.5244406856
O  O23  1  0.23980000  0.34200000  0.19641000  1.0 -0.5244406856
O  O24  1  0.76020000  0.84200000  0.80359000  1.0 -0.5244406856
O  O25  1  0.41130000  0.34519000  0.74057000  1.0 -0.5722153394
O  O26  1  0.58870000  0.84519000  0.25943000  1.0 -0.5722153394
O  O27  1  0.91130000  0.65481000  0.75943000  1.0 -0.5722153394
O  O28  1  0.08870000  0.15481000  0.24057000  1.0 -0.5722153394
O  O29  1  0.58870000  0.65481000  0.25943000  1.0 -0.5722153394
O  O30  1  0.41130000  0.15481000  0.74057000  1.0 -0.5722153394
O  O31  1  0.08870000  0.34519000  0.24057000  1.0 -0.5722153394
O  O32  1  0.91130000  0.84519000  0.75943000  1.0 -0.5722153394
O  O33  1  0.76040000  0.65910000  0.69570000  1.0 -0.532123009
O  O34  1  0.23960000  0.15910000  0.30430000  1.0 -0.532123009
O  O35  1  0.26040000  0.34090000  0.80430000  1.0 -0.532123009
O  O36  1  0.73960000  0.84090000  0.19570000  1.0 -0.532123009
O  O37  1  0.23960000  0.34090000  0.30430000  1.0 -0.532123009
O  O38  1  0.76040000  0.84090000  0.69570000  1.0 -0.532123009
O  O39  1  0.73960000  0.65910000  0.19570000  1.0 -0.532123009
O  O40  1  0.26040000  0.15910000  0.80430000  1.0 -0.532123009
O  O41  1  0.60800000  0.65590000  0.74013000  1.0 -0.5722153394
O  O42  1  0.39200000  0.15590000  0.25987000  1.0 -0.5722153394
O  O43  1  0.10800000  0.34410000  0.75987000  1.0 -0.5722153394
O  O44  1  0.89200000  0.84410000  0.24013000  1.0 -0.5722153394
O  O45  1  0.39200000  0.34410000  0.25987000  1.0 -0.5722153394
O  O46  1  0.60800000  0.84410000  0.74013000  1.0 -0.5722153394
O  O47  1  0.89200000  0.65590000  0.24013000  1.0 -0.5722153394
O  O48  1  0.10800000  0.15590000  0.75987000  1.0 -0.5722153394
O  O49  1  0.49180000  0.75000000  0.80611000  1.0 -0.3139067686
O  O50  1  0.50820000  0.25000000  0.19389000  1.0 -0.3139067686
O  O51  1  0.99180000  0.25000000  0.69389000  1.0 -0.3139067686
O  O52  1  0.00820000  0.75000000  0.30611000  1.0 -0.3139067686
O  O53  1  0.02710000  0.75000000  0.69352000  1.0 -0.3158311344
O  O54  1  0.97290000  0.25000000  0.30648000  1.0 -0.3158311344
O  O55  1  0.52710000  0.25000000  0.80648000  1.0 -0.3158311344
O  O56  1  0.47290000  0.75000000  0.19352000  1.0 -0.3158311344
