# DDEC6 charges by PACMAN v1.1 (https://github.com/mtap-research/PACMAN-charge/)
data_c6cc00589f2_1_FSR_pacman
_symmetry_space_group_name_H-M   'P 1'
_cell_length_a   17.11680000
_cell_length_b   17.11680000
_cell_length_c   17.11680000
_cell_angle_alpha   90.00000000
_cell_angle_beta   90.00000000
_cell_angle_gamma   90.00000000
_symmetry_Int_Tables_number   1
_chemical_formula_structural   ZnH6(CN2)4
_chemical_formula_sum   'Zn12 H72 C48 N96'
_cell_volume   5014.96294765
_cell_formula_units_Z   12
loop_
 _symmetry_equiv_pos_site_id
 _symmetry_equiv_pos_as_xyz
  1  'x, y, z'
loop_
 _atom_site_type_symbol
 _atom_site_label
 _atom_site_symmetry_multiplicity
 _atom_site_fract_x
 _atom_site_fract_y
 _atom_site_fract_z
 _atom_site_occupancy
 _atom_site_charge
Zn  Zn1  1  0.00000000  0.50000000  0.25000000  1.0 0.5664663408
Zn  Zn2  1  0.00000000  0.50000000  0.75000000  1.0 0.5664663408
Zn  Zn3  1  0.25000000  0.00000000  0.50000000  1.0 0.5664663408
Zn  Zn4  1  0.75000000  0.00000000  0.50000000  1.0 0.5664663408
Zn  Zn5  1  0.50000000  0.25000000  0.00000000  1.0 0.5664663408
Zn  Zn6  1  0.50000000  0.75000000  0.00000000  1.0 0.5664663408
Zn  Zn7  1  0.50000000  0.00000000  0.25000000  1.0 0.5664663408
Zn  Zn8  1  0.50000000  0.00000000  0.75000000  1.0 0.5664663408
Zn  Zn9  1  0.00000000  0.25000000  0.50000000  1.0 0.5664663408
Zn  Zn10  1  0.00000000  0.75000000  0.50000000  1.0 0.5664663408
Zn  Zn11  1  0.25000000  0.50000000  0.00000000  1.0 0.5664663408
Zn  Zn12  1  0.75000000  0.50000000  0.00000000  1.0 0.5664663408
H  H1  1  0.88190000  0.37010000  0.44480000  0.5 0.0783281508
H  H2  1  0.11810000  0.62990000  0.44480000  0.5 0.0783281508
H  H3  1  0.11810000  0.37010000  0.55520000  0.5 0.0783281508
H  H4  1  0.88190000  0.62990000  0.55520000  0.5 0.0783281508
H  H5  1  0.44480000  0.88190000  0.37010000  0.5 0.0783281508
H  H6  1  0.44480000  0.11810000  0.62990000  0.5 0.0783281508
H  H7  1  0.55520000  0.11810000  0.37010000  0.5 0.0783281508
H  H8  1  0.55520000  0.88190000  0.62990000  0.5 0.0783281508
H  H9  1  0.37010000  0.44480000  0.88190000  0.5 0.0783281508
H  H10  1  0.62990000  0.44480000  0.11810000  0.5 0.0783281508
H  H11  1  0.37010000  0.55520000  0.11810000  0.5 0.0783281508
H  H12  1  0.62990000  0.55520000  0.88190000  0.5 0.0783281508
H  H13  1  0.37010000  0.88190000  0.44480000  0.5 0.0783281508
H  H14  1  0.62990000  0.11810000  0.44480000  0.5 0.0783281508
H  H15  1  0.37010000  0.11810000  0.55520000  0.5 0.0783281508
H  H16  1  0.62990000  0.88190000  0.55520000  0.5 0.0783281508
H  H17  1  0.88190000  0.44480000  0.37010000  0.5 0.0783281508
H  H18  1  0.11810000  0.44480000  0.62990000  0.5 0.0783281508
H  H19  1  0.11810000  0.55520000  0.37010000  0.5 0.0783281508
H  H20  1  0.88190000  0.55520000  0.62990000  0.5 0.0783281508
H  H21  1  0.44480000  0.37010000  0.88190000  0.5 0.0783281508
H  H22  1  0.44480000  0.62990000  0.11810000  0.5 0.0783281508
H  H23  1  0.55520000  0.37010000  0.11810000  0.5 0.0783281508
H  H24  1  0.55520000  0.62990000  0.88190000  0.5 0.0783281508
H  H25  1  0.38190000  0.87010000  0.94480000  0.5 0.0783281508
H  H26  1  0.61810000  0.12990000  0.94480000  0.5 0.0783281508
H  H27  1  0.61810000  0.87010000  0.05520000  0.5 0.0783281508
H  H28  1  0.38190000  0.12990000  0.05520000  0.5 0.0783281508
H  H29  1  0.94480000  0.38190000  0.87010000  0.5 0.0783281508
H  H30  1  0.94480000  0.61810000  0.12990000  0.5 0.0783281508
H  H31  1  0.05520000  0.61810000  0.87010000  0.5 0.0783281508
H  H32  1  0.05520000  0.38190000  0.12990000  0.5 0.0783281508
H  H33  1  0.87010000  0.94480000  0.38190000  0.5 0.0783281508
H  H34  1  0.12990000  0.94480000  0.61810000  0.5 0.0783281508
H  H35  1  0.87010000  0.05520000  0.61810000  0.5 0.0783281508
H  H36  1  0.12990000  0.05520000  0.38190000  0.5 0.0783281508
H  H37  1  0.87010000  0.38190000  0.94480000  0.5 0.0783281508
H  H38  1  0.12990000  0.61810000  0.94480000  0.5 0.0783281508
H  H39  1  0.87010000  0.61810000  0.05520000  0.5 0.0783281508
H  H40  1  0.12990000  0.38190000  0.05520000  0.5 0.0783281508
H  H41  1  0.38190000  0.94480000  0.87010000  0.5 0.0783281508
H  H42  1  0.61810000  0.94480000  0.12990000  0.5 0.0783281508
H  H43  1  0.61810000  0.05520000  0.87010000  0.5 0.0783281508
H  H44  1  0.38190000  0.05520000  0.12990000  0.5 0.0783281508
H  H45  1  0.94480000  0.87010000  0.38190000  0.5 0.0783281508
H  H46  1  0.94480000  0.12990000  0.61810000  0.5 0.0783281508
H  H47  1  0.05520000  0.87010000  0.61810000  0.5 0.0783281508
H  H48  1  0.05520000  0.12990000  0.38190000  0.5 0.0783281508
H  H49  1  0.89860000  0.45490000  0.41450000  0.5 0.0783281508
H  H50  1  0.10140000  0.54510000  0.41450000  0.5 0.0783281508
H  H51  1  0.10140000  0.45490000  0.58550000  0.5 0.0783281508
H  H52  1  0.89860000  0.54510000  0.58550000  0.5 0.0783281508
H  H53  1  0.41450000  0.89860000  0.45490000  0.5 0.0783281508
H  H54  1  0.41450000  0.10140000  0.54510000  0.5 0.0783281508
H  H55  1  0.58550000  0.10140000  0.45490000  0.5 0.0783281508
H  H56  1  0.58550000  0.89860000  0.54510000  0.5 0.0783281508
H  H57  1  0.45490000  0.41450000  0.89860000  0.5 0.0783281508
H  H58  1  0.54510000  0.41450000  0.10140000  0.5 0.0783281508
H  H59  1  0.45490000  0.58550000  0.10140000  0.5 0.0783281508
H  H60  1  0.54510000  0.58550000  0.89860000  0.5 0.0783281508
H  H61  1  0.45490000  0.89860000  0.41450000  0.5 0.0783281508
H  H62  1  0.54510000  0.10140000  0.41450000  0.5 0.0783281508
H  H63  1  0.45490000  0.10140000  0.58550000  0.5 0.0783281508
H  H64  1  0.54510000  0.89860000  0.58550000  0.5 0.0783281508
H  H65  1  0.89860000  0.41450000  0.45490000  0.5 0.0783281508
H  H66  1  0.10140000  0.41450000  0.54510000  0.5 0.0783281508
H  H67  1  0.10140000  0.58550000  0.45490000  0.5 0.0783281508
H  H68  1  0.89860000  0.58550000  0.54510000  0.5 0.0783281508
H  H69  1  0.41450000  0.45490000  0.89860000  0.5 0.0783281508
H  H70  1  0.41450000  0.54510000  0.10140000  0.5 0.0783281508
H  H71  1  0.58550000  0.45490000  0.10140000  0.5 0.0783281508
H  H72  1  0.58550000  0.54510000  0.89860000  0.5 0.0783281508
H  H73  1  0.39860000  0.95490000  0.91450000  0.5 0.0783281508
H  H74  1  0.60140000  0.04510000  0.91450000  0.5 0.0783281508
H  H75  1  0.60140000  0.95490000  0.08550000  0.5 0.0783281508
H  H76  1  0.39860000  0.04510000  0.08550000  0.5 0.0783281508
H  H77  1  0.91450000  0.39860000  0.95490000  0.5 0.0783281508
H  H78  1  0.91450000  0.60140000  0.04510000  0.5 0.0783281508
H  H79  1  0.08550000  0.60140000  0.95490000  0.5 0.0783281508
H  H80  1  0.08550000  0.39860000  0.04510000  0.5 0.0783281508
H  H81  1  0.95490000  0.91450000  0.39860000  0.5 0.0783281508
H  H82  1  0.04510000  0.91450000  0.60140000  0.5 0.0783281508
H  H83  1  0.95490000  0.08550000  0.60140000  0.5 0.0783281508
H  H84  1  0.04510000  0.08550000  0.39860000  0.5 0.0783281508
H  H85  1  0.95490000  0.39860000  0.91450000  0.5 0.0783281508
H  H86  1  0.04510000  0.60140000  0.91450000  0.5 0.0783281508
H  H87  1  0.95490000  0.60140000  0.08550000  0.5 0.0783281508
H  H88  1  0.04510000  0.39860000  0.08550000  0.5 0.0783281508
H  H89  1  0.39860000  0.91450000  0.95490000  0.5 0.0783281508
H  H90  1  0.60140000  0.91450000  0.04510000  0.5 0.0783281508
H  H91  1  0.60140000  0.08550000  0.95490000  0.5 0.0783281508
H  H92  1  0.39860000  0.08550000  0.04510000  0.5 0.0783281508
H  H93  1  0.91450000  0.95490000  0.39860000  0.5 0.0783281508
H  H94  1  0.91450000  0.04510000  0.60140000  0.5 0.0783281508
H  H95  1  0.08550000  0.95490000  0.60140000  0.5 0.0783281508
H  H96  1  0.08550000  0.04510000  0.39860000  0.5 0.0783281508
H  H97  1  0.86220000  0.39250000  0.35820000  0.5 0.0719197635
H  H98  1  0.13780000  0.60750000  0.35820000  0.5 0.0719197635
H  H99  1  0.13780000  0.39250000  0.64180000  0.5 0.0719197635
H  H100  1  0.86220000  0.60750000  0.64180000  0.5 0.0719197635
H  H101  1  0.35820000  0.86220000  0.39250000  0.5 0.0719197635
H  H102  1  0.35820000  0.13780000  0.60750000  0.5 0.0719197635
H  H103  1  0.64180000  0.13780000  0.39250000  0.5 0.0719197635
H  H104  1  0.64180000  0.86220000  0.60750000  0.5 0.0719197635
H  H105  1  0.39250000  0.35820000  0.86220000  0.5 0.0719197635
H  H106  1  0.60750000  0.35820000  0.13780000  0.5 0.0719197635
H  H107  1  0.39250000  0.64180000  0.13780000  0.5 0.0719197635
H  H108  1  0.60750000  0.64180000  0.86220000  0.5 0.0719197635
H  H109  1  0.39250000  0.86220000  0.35820000  0.5 0.0719197635
H  H110  1  0.60750000  0.13780000  0.35820000  0.5 0.0719197635
H  H111  1  0.39250000  0.13780000  0.64180000  0.5 0.0719197635
H  H112  1  0.60750000  0.86220000  0.64180000  0.5 0.0719197635
H  H113  1  0.86220000  0.35820000  0.39250000  0.5 0.0719197635
H  H114  1  0.13780000  0.35820000  0.60750000  0.5 0.0719197635
H  H115  1  0.13780000  0.64180000  0.39250000  0.5 0.0719197635
H  H116  1  0.86220000  0.64180000  0.60750000  0.5 0.0719197635
H  H117  1  0.35820000  0.39250000  0.86220000  0.5 0.0719197635
H  H118  1  0.35820000  0.60750000  0.13780000  0.5 0.0719197635
H  H119  1  0.64180000  0.39250000  0.13780000  0.5 0.0719197635
H  H120  1  0.64180000  0.60750000  0.86220000  0.5 0.0719197635
H  H121  1  0.36220000  0.89250000  0.85820000  0.5 0.0719197635
H  H122  1  0.63780000  0.10750000  0.85820000  0.5 0.0719197635
H  H123  1  0.63780000  0.89250000  0.14180000  0.5 0.0719197635
H  H124  1  0.36220000  0.10750000  0.14180000  0.5 0.0719197635
H  H125  1  0.85820000  0.36220000  0.89250000  0.5 0.0719197635
H  H126  1  0.85820000  0.63780000  0.10750000  0.5 0.0719197635
H  H127  1  0.14180000  0.63780000  0.89250000  0.5 0.0719197635
H  H128  1  0.14180000  0.36220000  0.10750000  0.5 0.0719197635
H  H129  1  0.89250000  0.85820000  0.36220000  0.5 0.0719197635
H  H130  1  0.10750000  0.85820000  0.63780000  0.5 0.0719197635
H  H131  1  0.89250000  0.14180000  0.63780000  0.5 0.0719197635
H  H132  1  0.10750000  0.14180000  0.36220000  0.5 0.0719197635
H  H133  1  0.89250000  0.36220000  0.85820000  0.5 0.0719197635
H  H134  1  0.10750000  0.63780000  0.85820000  0.5 0.0719197635
H  H135  1  0.89250000  0.63780000  0.14180000  0.5 0.0719197635
H  H136  1  0.10750000  0.36220000  0.14180000  0.5 0.0719197635
H  H137  1  0.36220000  0.85820000  0.89250000  0.5 0.0719197635
H  H138  1  0.63780000  0.85820000  0.10750000  0.5 0.0719197635
H  H139  1  0.63780000  0.14180000  0.89250000  0.5 0.0719197635
H  H140  1  0.36220000  0.14180000  0.10750000  0.5 0.0719197635
H  H141  1  0.85820000  0.89250000  0.36220000  0.5 0.0719197635
H  H142  1  0.85820000  0.10750000  0.63780000  0.5 0.0719197635
H  H143  1  0.14180000  0.89250000  0.63780000  0.5 0.0719197635
H  H144  1  0.14180000  0.10750000  0.36220000  0.5 0.0719197635
C  C1  1  0.97850000  0.37590000  0.37590000  1.0 0.2295983173
C  C2  1  0.02150000  0.62410000  0.37590000  1.0 0.2295983173
C  C3  1  0.02150000  0.37590000  0.62410000  1.0 0.2295983173
C  C4  1  0.97850000  0.62410000  0.62410000  1.0 0.2295983173
C  C5  1  0.37590000  0.97850000  0.37590000  1.0 0.2295983173
C  C6  1  0.37590000  0.02150000  0.62410000  1.0 0.2295983173
C  C7  1  0.62410000  0.02150000  0.37590000  1.0 0.2295983173
C  C8  1  0.62410000  0.97850000  0.62410000  1.0 0.2295983173
C  C9  1  0.37590000  0.37590000  0.97850000  1.0 0.2295983173
C  C10  1  0.62410000  0.37590000  0.02150000  1.0 0.2295983173
C  C11  1  0.37590000  0.62410000  0.02150000  1.0 0.2295983173
C  C12  1  0.62410000  0.62410000  0.97850000  1.0 0.2295983173
C  C13  1  0.47850000  0.87590000  0.87590000  1.0 0.2295983173
C  C14  1  0.52150000  0.12410000  0.87590000  1.0 0.2295983173
C  C15  1  0.52150000  0.87590000  0.12410000  1.0 0.2295983173
C  C16  1  0.47850000  0.12410000  0.12410000  1.0 0.2295983173
C  C17  1  0.87590000  0.47850000  0.87590000  1.0 0.2295983173
C  C18  1  0.87590000  0.52150000  0.12410000  1.0 0.2295983173
C  C19  1  0.12410000  0.52150000  0.87590000  1.0 0.2295983173
C  C20  1  0.12410000  0.47850000  0.12410000  1.0 0.2295983173
C  C21  1  0.87590000  0.87590000  0.47850000  1.0 0.2295983173
C  C22  1  0.12410000  0.87590000  0.52150000  1.0 0.2295983173
C  C23  1  0.87590000  0.12410000  0.52150000  1.0 0.2295983173
C  C24  1  0.12410000  0.12410000  0.47850000  1.0 0.2295983173
C  C25  1  0.89810000  0.40060000  0.40060000  1.0 -0.3533177618
C  C26  1  0.10190000  0.59940000  0.40060000  1.0 -0.3533177618
C  C27  1  0.10190000  0.40060000  0.59940000  1.0 -0.3533177618
C  C28  1  0.89810000  0.59940000  0.59940000  1.0 -0.3533177618
C  C29  1  0.40060000  0.89810000  0.40060000  1.0 -0.3533177618
C  C30  1  0.40060000  0.10190000  0.59940000  1.0 -0.3533177618
C  C31  1  0.59940000  0.10190000  0.40060000  1.0 -0.3533177618
C  C32  1  0.59940000  0.89810000  0.59940000  1.0 -0.3533177618
C  C33  1  0.40060000  0.40060000  0.89810000  1.0 -0.3533177618
C  C34  1  0.59940000  0.40060000  0.10190000  1.0 -0.3533177618
C  C35  1  0.40060000  0.59940000  0.10190000  1.0 -0.3533177618
C  C36  1  0.59940000  0.59940000  0.89810000  1.0 -0.3533177618
C  C37  1  0.39810000  0.90060000  0.90060000  1.0 -0.3533177618
C  C38  1  0.60190000  0.09940000  0.90060000  1.0 -0.3533177618
C  C39  1  0.60190000  0.90060000  0.09940000  1.0 -0.3533177618
C  C40  1  0.39810000  0.09940000  0.09940000  1.0 -0.3533177618
C  C41  1  0.90060000  0.39810000  0.90060000  1.0 -0.3533177618
C  C42  1  0.90060000  0.60190000  0.09940000  1.0 -0.3533177618
C  C43  1  0.09940000  0.60190000  0.90060000  1.0 -0.3533177618
C  C44  1  0.09940000  0.39810000  0.09940000  1.0 -0.3533177618
C  C45  1  0.90060000  0.90060000  0.39810000  1.0 -0.3533177618
C  C46  1  0.09940000  0.90060000  0.60190000  1.0 -0.3533177618
C  C47  1  0.90060000  0.09940000  0.60190000  1.0 -0.3533177618
C  C48  1  0.09940000  0.09940000  0.39810000  1.0 -0.3533177618
N  N1  1  0.01540000  0.40710000  0.31760000  1.0 -0.2726770422
N  N2  1  0.98460000  0.59290000  0.31760000  1.0 -0.2726770422
N  N3  1  0.98460000  0.40710000  0.68240000  1.0 -0.2726770422
N  N4  1  0.01540000  0.59290000  0.68240000  1.0 -0.2726770422
N  N5  1  0.31760000  0.01540000  0.40710000  1.0 -0.2726770422
N  N6  1  0.31760000  0.98460000  0.59290000  1.0 -0.2726770422
N  N7  1  0.68240000  0.98460000  0.40710000  1.0 -0.2726770422
N  N8  1  0.68240000  0.01540000  0.59290000  1.0 -0.2726770422
N  N9  1  0.40710000  0.31760000  0.01540000  1.0 -0.2726770422
N  N10  1  0.59290000  0.31760000  0.98460000  1.0 -0.2726770422
N  N11  1  0.40710000  0.68240000  0.98460000  1.0 -0.2726770422
N  N12  1  0.59290000  0.68240000  0.01540000  1.0 -0.2726770422
N  N13  1  0.40710000  0.01540000  0.31760000  1.0 -0.2726770422
N  N14  1  0.59290000  0.98460000  0.31760000  1.0 -0.2726770422
N  N15  1  0.40710000  0.98460000  0.68240000  1.0 -0.2726770422
N  N16  1  0.59290000  0.01540000  0.68240000  1.0 -0.2726770422
N  N17  1  0.01540000  0.31760000  0.40710000  1.0 -0.2726770422
N  N18  1  0.98460000  0.31760000  0.59290000  1.0 -0.2726770422
N  N19  1  0.98460000  0.68240000  0.40710000  1.0 -0.2726770422
N  N20  1  0.01540000  0.68240000  0.59290000  1.0 -0.2726770422
N  N21  1  0.31760000  0.40710000  0.01540000  1.0 -0.2726770422
N  N22  1  0.31760000  0.59290000  0.98460000  1.0 -0.2726770422
N  N23  1  0.68240000  0.40710000  0.98460000  1.0 -0.2726770422
N  N24  1  0.68240000  0.59290000  0.01540000  1.0 -0.2726770422
N  N25  1  0.51540000  0.90710000  0.81760000  1.0 -0.2726770422
N  N26  1  0.48460000  0.09290000  0.81760000  1.0 -0.2726770422
N  N27  1  0.48460000  0.90710000  0.18240000  1.0 -0.2726770422
N  N28  1  0.51540000  0.09290000  0.18240000  1.0 -0.2726770422
N  N29  1  0.81760000  0.51540000  0.90710000  1.0 -0.2726770422
N  N30  1  0.81760000  0.48460000  0.09290000  1.0 -0.2726770422
N  N31  1  0.18240000  0.48460000  0.90710000  1.0 -0.2726770422
N  N32  1  0.18240000  0.51540000  0.09290000  1.0 -0.2726770422
N  N33  1  0.90710000  0.81760000  0.51540000  1.0 -0.2726770422
N  N34  1  0.09290000  0.81760000  0.48460000  1.0 -0.2726770422
N  N35  1  0.90710000  0.18240000  0.48460000  1.0 -0.2726770422
N  N36  1  0.09290000  0.18240000  0.51540000  1.0 -0.2726770422
N  N37  1  0.90710000  0.51540000  0.81760000  1.0 -0.2726770422
N  N38  1  0.09290000  0.48460000  0.81760000  1.0 -0.2726770422
N  N39  1  0.90710000  0.48460000  0.18240000  1.0 -0.2726770422
N  N40  1  0.09290000  0.51540000  0.18240000  1.0 -0.2726770422
N  N41  1  0.51540000  0.81760000  0.90710000  1.0 -0.2726770422
N  N42  1  0.48460000  0.81760000  0.09290000  1.0 -0.2726770422
N  N43  1  0.48460000  0.18240000  0.90710000  1.0 -0.2726770422
N  N44  1  0.51540000  0.18240000  0.09290000  1.0 -0.2726770422
N  N45  1  0.81760000  0.90710000  0.51540000  1.0 -0.2726770422
N  N46  1  0.81760000  0.09290000  0.48460000  1.0 -0.2726770422
N  N47  1  0.18240000  0.90710000  0.48460000  1.0 -0.2726770422
N  N48  1  0.18240000  0.09290000  0.51540000  1.0 -0.2726770422
N  N49  1  0.08200000  0.36530000  0.31300000  1.0 -0.0356808229
N  N50  1  0.91800000  0.63470000  0.31300000  1.0 -0.0356808229
N  N51  1  0.91800000  0.36530000  0.68700000  1.0 -0.0356808229
N  N52  1  0.08200000  0.63470000  0.68700000  1.0 -0.0356808229
N  N53  1  0.31300000  0.08200000  0.36530000  1.0 -0.0356808229
N  N54  1  0.31300000  0.91800000  0.63470000  1.0 -0.0356808229
N  N55  1  0.68700000  0.91800000  0.36530000  1.0 -0.0356808229
N  N56  1  0.68700000  0.08200000  0.63470000  1.0 -0.0356808229
N  N57  1  0.36530000  0.31300000  0.08200000  1.0 -0.0356808229
N  N58  1  0.63470000  0.31300000  0.91800000  1.0 -0.0356808229
N  N59  1  0.36530000  0.68700000  0.91800000  1.0 -0.0356808229
N  N60  1  0.63470000  0.68700000  0.08200000  1.0 -0.0356808229
N  N61  1  0.36530000  0.08200000  0.31300000  1.0 -0.0356808229
N  N62  1  0.63470000  0.91800000  0.31300000  1.0 -0.0356808229
N  N63  1  0.36530000  0.91800000  0.68700000  1.0 -0.0356808229
N  N64  1  0.63470000  0.08200000  0.68700000  1.0 -0.0356808229
N  N65  1  0.08200000  0.31300000  0.36530000  1.0 -0.0356808229
N  N66  1  0.91800000  0.31300000  0.63470000  1.0 -0.0356808229
N  N67  1  0.91800000  0.68700000  0.36530000  1.0 -0.0356808229
N  N68  1  0.08200000  0.68700000  0.63470000  1.0 -0.0356808229
N  N69  1  0.31300000  0.36530000  0.08200000  1.0 -0.0344838407
N  N70  1  0.31300000  0.63470000  0.91800000  1.0 -0.0356808229
N  N71  1  0.68700000  0.36530000  0.91800000  1.0 -0.0356808229
N  N72  1  0.68700000  0.63470000  0.08200000  1.0 -0.0356808229
N  N73  1  0.58200000  0.86530000  0.81300000  1.0 -0.0356808229
N  N74  1  0.41800000  0.13470000  0.81300000  1.0 -0.0356808229
N  N75  1  0.41800000  0.86530000  0.18700000  1.0 -0.0356808229
N  N76  1  0.58200000  0.13470000  0.18700000  1.0 -0.0356808229
N  N77  1  0.81300000  0.58200000  0.86530000  1.0 -0.0356808229
N  N78  1  0.81300000  0.41800000  0.13470000  1.0 -0.0356808229
N  N79  1  0.18700000  0.41800000  0.86530000  1.0 -0.0356808229
N  N80  1  0.18700000  0.58200000  0.13470000  1.0 -0.0356808229
N  N81  1  0.86530000  0.81300000  0.58200000  1.0 -0.0356808229
N  N82  1  0.13470000  0.81300000  0.41800000  1.0 -0.0356808229
N  N83  1  0.86530000  0.18700000  0.41800000  1.0 -0.0356808229
N  N84  1  0.13470000  0.18700000  0.58200000  1.0 -0.0356808229
N  N85  1  0.86530000  0.58200000  0.81300000  1.0 -0.0356808229
N  N86  1  0.13470000  0.41800000  0.81300000  1.0 -0.0356808229
N  N87  1  0.86530000  0.41800000  0.18700000  1.0 -0.0356808229
N  N88  1  0.13470000  0.58200000  0.18700000  1.0 -0.0356808229
N  N89  1  0.58200000  0.81300000  0.86530000  1.0 -0.0356808229
N  N90  1  0.41800000  0.81300000  0.13470000  1.0 -0.0356808229
N  N91  1  0.41800000  0.18700000  0.86530000  1.0 -0.0356808229
N  N92  1  0.58200000  0.18700000  0.13470000  1.0 -0.0356808229
N  N93  1  0.81300000  0.86530000  0.58200000  1.0 -0.0356808229
N  N94  1  0.81300000  0.13470000  0.41800000  1.0 -0.0356808229
N  N95  1  0.18700000  0.86530000  0.41800000  1.0 -0.0356808229
N  N96  1  0.18700000  0.13470000  0.58200000  1.0 -0.0356808229
