# DDEC6 charges by PACMAN v1.1 (https://github.com/mtap-research/PACMAN-charge/)
data_c9qi00543a2_FSR_pacman
_symmetry_space_group_name_H-M   'P 1'
_cell_length_a   17.67000000
_cell_length_b   17.67000000
_cell_length_c   8.05430000
_cell_angle_alpha   90.00000000
_cell_angle_beta   90.00000000
_cell_angle_gamma   90.00000000
_symmetry_Int_Tables_number   1
_chemical_formula_structural   Fe6H24C60S2N4O35.28
_chemical_formula_sum   'Fe6 H24 C60 S2 N4 O35.28'
_cell_volume   2514.78522927
_cell_formula_units_Z   1
loop_
 _symmetry_equiv_pos_site_id
 _symmetry_equiv_pos_as_xyz
  1  'x, y, z'
loop_
 _atom_site_type_symbol
 _atom_site_label
 _atom_site_symmetry_multiplicity
 _atom_site_fract_x
 _atom_site_fract_y
 _atom_site_fract_z
 _atom_site_occupancy
 _atom_site_charge
Fe  Fe1  1  0.50000000  0.00000000  0.20350000  1.0 0.9132114585
Fe  Fe2  1  0.00000000  0.50000000  0.79650000  1.0 0.9132114585
Fe  Fe3  1  0.50000000  0.90490000  0.55220000  0.5 0.5179882433
Fe  Fe4  1  0.50000000  0.09510000  0.55220000  0.5 0.5179882433
Fe  Fe5  1  0.40490000  0.00000000  0.55220000  0.5 0.5179882433
Fe  Fe6  1  0.59510000  0.00000000  0.55220000  0.5 0.5179882433
Fe  Fe7  1  0.00000000  0.59510000  0.44780000  0.5 0.5179882433
Fe  Fe8  1  0.00000000  0.40490000  0.44780000  0.5 0.5179882433
Fe  Fe9  1  0.90490000  0.50000000  0.44780000  0.5 0.5179882433
Fe  Fe10  1  0.09510000  0.50000000  0.44780000  0.5 0.5179882433
H  H1  1  0.28310000  0.78310000  0.39440000  1.0 0.1238970693
H  H2  1  0.35660000  0.85660000  0.95270000  1.0 0.0886808049
H  H3  1  0.30190000  0.80190000  0.71020000  1.0 0.1288403656
H  H4  1  0.71690000  0.21690000  0.39440000  1.0 0.1238970693
H  H5  1  0.64340000  0.14340000  0.95270000  1.0 0.0886808049
H  H6  1  0.69810000  0.19810000  0.71020000  1.0 0.1288403656
H  H7  1  0.28310000  0.21690000  0.39440000  1.0 0.1238970693
H  H8  1  0.35660000  0.14340000  0.95270000  1.0 0.0886808049
H  H9  1  0.30190000  0.19810000  0.71020000  1.0 0.1288403656
H  H10  1  0.71690000  0.78310000  0.39440000  1.0 0.1238970693
H  H11  1  0.64340000  0.85660000  0.95270000  1.0 0.0886808049
H  H12  1  0.69810000  0.80190000  0.71020000  1.0 0.1288403656
H  H13  1  0.78310000  0.71690000  0.60560000  1.0 0.1238970693
H  H14  1  0.85660000  0.64340000  0.04730000  1.0 0.0886808049
H  H15  1  0.80190000  0.69810000  0.28980000  1.0 0.1288403656
H  H16  1  0.21690000  0.28310000  0.60560000  1.0 0.1238970693
H  H17  1  0.14340000  0.35660000  0.04730000  1.0 0.0886808049
H  H18  1  0.19810000  0.30190000  0.28980000  1.0 0.1288403656
H  H19  1  0.78310000  0.28310000  0.60560000  1.0 0.1238970693
H  H20  1  0.85660000  0.35660000  0.04730000  1.0 0.0886808049
H  H21  1  0.80190000  0.30190000  0.28980000  1.0 0.1288403656
H  H22  1  0.21690000  0.71690000  0.60560000  1.0 0.1238970693
H  H23  1  0.14340000  0.64340000  0.04730000  1.0 0.0886808049
H  H24  1  0.19810000  0.69810000  0.28980000  1.0 0.1288403656
C  C1  1  0.27900000  0.77900000  0.28000000  1.0 -0.1025712926
C  C2  1  0.32550000  0.82550000  0.01600000  1.0 -0.1963696319
C  C3  1  0.38400000  0.88400000  0.25200000  1.0 0.5284176554
C  C4  1  0.27150000  0.77150000  0.94400000  1.0 0.0620619423
C  C5  1  0.32530000  0.82530000  0.18900000  1.0 -0.0137250035
C  C6  1  0.27100000  0.77100000  0.77700000  1.0 -0.1304231368
C  C7  1  0.72100000  0.22100000  0.28000000  1.0 -0.1025712926
C  C8  1  0.67450000  0.17450000  0.01600000  1.0 -0.1963696319
C  C9  1  0.61600000  0.11600000  0.25200000  1.0 0.5284176554
C  C10  1  0.72850000  0.22850000  0.94400000  1.0 0.0620619423
C  C11  1  0.67470000  0.17470000  0.18900000  1.0 -0.0137250035
C  C12  1  0.72900000  0.22900000  0.77700000  1.0 -0.1304231368
C  C13  1  0.27900000  0.22100000  0.28000000  1.0 -0.1025712926
C  C14  1  0.32550000  0.17450000  0.01600000  1.0 -0.1963696319
C  C15  1  0.38400000  0.11600000  0.25200000  1.0 0.5284176554
C  C16  1  0.27150000  0.22850000  0.94400000  1.0 0.0620619423
C  C17  1  0.32530000  0.17470000  0.18900000  1.0 -0.0137250035
C  C18  1  0.27100000  0.22900000  0.77700000  1.0 -0.1304231368
C  C19  1  0.72100000  0.77900000  0.28000000  1.0 -0.1025712926
C  C20  1  0.67450000  0.82550000  0.01600000  1.0 -0.1963696319
C  C21  1  0.61600000  0.88400000  0.25200000  1.0 0.5284176554
C  C22  1  0.72850000  0.77150000  0.94400000  1.0 0.0620619423
C  C23  1  0.67470000  0.82530000  0.18900000  1.0 -0.0137250035
C  C24  1  0.72900000  0.77100000  0.77700000  1.0 -0.1304231368
C  C25  1  0.77900000  0.72100000  0.72000000  1.0 -0.1025712926
C  C26  1  0.82550000  0.67450000  0.98400000  1.0 -0.1963696319
C  C27  1  0.88400000  0.61600000  0.74800000  1.0 0.5284176554
C  C28  1  0.77150000  0.72850000  0.05600000  1.0 0.0620619423
C  C29  1  0.82530000  0.67470000  0.81100000  1.0 -0.0137250035
C  C30  1  0.77100000  0.72900000  0.22300000  1.0 -0.1304231368
C  C31  1  0.22100000  0.27900000  0.72000000  1.0 -0.1025712926
C  C32  1  0.17450000  0.32550000  0.98400000  1.0 -0.1963696319
C  C33  1  0.11600000  0.38400000  0.74800000  1.0 0.5284176554
C  C34  1  0.22850000  0.27150000  0.05600000  1.0 0.0620619423
C  C35  1  0.17470000  0.32530000  0.81100000  1.0 -0.0137250035
C  C36  1  0.22900000  0.27100000  0.22300000  1.0 -0.1304231368
C  C37  1  0.77900000  0.27900000  0.72000000  1.0 -0.1025712926
C  C38  1  0.82550000  0.32550000  0.98400000  1.0 -0.1963696319
C  C39  1  0.88400000  0.38400000  0.74800000  1.0 0.5284176554
C  C40  1  0.77150000  0.27150000  0.05600000  1.0 0.0620619423
C  C41  1  0.82530000  0.32530000  0.81100000  1.0 -0.0137250035
C  C42  1  0.77100000  0.27100000  0.22300000  1.0 -0.1304231368
C  C43  1  0.22100000  0.72100000  0.72000000  1.0 -0.1025712926
C  C44  1  0.17450000  0.67450000  0.98400000  1.0 -0.1963696319
C  C45  1  0.11600000  0.61600000  0.74800000  1.0 0.5284176554
C  C46  1  0.22850000  0.72850000  0.05600000  1.0 0.0620619423
C  C47  1  0.17470000  0.67470000  0.81100000  1.0 -0.0137250035
C  C48  1  0.22900000  0.72900000  0.22300000  1.0 -0.1304231368
C  C49  1  0.50000000  0.71400000  0.10300000  0.5 0.0079880432
C  C50  1  0.50000000  0.79200000  0.84500000  0.5 0.2701672326
C  C51  1  0.50000000  0.66000000  0.78400000  0.5 0.0425495432
C  C52  1  0.50000000  0.28600000  0.10300000  0.5 0.0079880432
C  C53  1  0.50000000  0.20800000  0.84500000  0.5 0.2701672326
C  C54  1  0.50000000  0.34000000  0.78400000  0.5 0.0425495432
C  C55  1  0.21400000  0.00000000  0.10300000  0.5 0.0079880432
C  C56  1  0.29200000  0.00000000  0.84500000  0.5 0.2701672326
C  C57  1  0.16000000  0.00000000  0.78400000  0.5 0.0425495432
C  C58  1  0.78600000  0.00000000  0.10300000  0.5 0.0079880432
C  C59  1  0.70800000  0.00000000  0.84500000  0.5 0.2701672326
C  C60  1  0.84000000  0.00000000  0.78400000  0.5 0.0425495432
C  C61  1  0.00000000  0.78600000  0.89700000  0.5 0.0079880432
C  C62  1  0.00000000  0.70800000  0.15500000  0.5 0.2701672326
C  C63  1  0.00000000  0.84000000  0.21600000  0.5 0.0425495432
C  C64  1  0.00000000  0.21400000  0.89700000  0.5 0.0079880432
C  C65  1  0.00000000  0.29200000  0.15500000  0.5 0.2701672326
C  C66  1  0.00000000  0.16000000  0.21600000  0.5 0.0425495432
C  C67  1  0.71400000  0.50000000  0.89700000  0.5 0.0079880432
C  C68  1  0.79200000  0.50000000  0.15500000  0.5 0.2701672326
C  C69  1  0.66000000  0.50000000  0.21600000  0.5 0.0425495432
C  C70  1  0.28600000  0.50000000  0.89700000  0.5 0.0079880432
C  C71  1  0.20800000  0.50000000  0.15500000  0.5 0.2701672326
C  C72  1  0.34000000  0.50000000  0.21600000  0.5 0.0425495432
S  S1  1  0.50000000  0.91400000  0.79500000  0.25 0.3801622253
S  S2  1  0.50000000  0.08600000  0.79500000  0.25 0.3801622253
S  S3  1  0.41400000  0.00000000  0.79500000  0.25 0.3801622253
S  S4  1  0.58600000  0.00000000  0.79500000  0.25 0.3801622253
S  S5  1  0.00000000  0.58600000  0.20500000  0.25 0.3801622253
S  S6  1  0.00000000  0.41400000  0.20500000  0.25 0.3801622253
S  S7  1  0.91400000  0.50000000  0.20500000  0.25 0.3801622253
S  S8  1  0.08600000  0.50000000  0.20500000  0.25 0.3801622253
N  N1  1  0.50000000  0.71900000  0.90300000  0.5 -0.057540017
N  N2  1  0.50000000  0.28100000  0.90300000  0.5 -0.057540017
N  N3  1  0.21900000  0.00000000  0.90300000  0.5 -0.057540017
N  N4  1  0.78100000  0.00000000  0.90300000  0.5 -0.057540017
N  N5  1  0.00000000  0.78100000  0.09700000  0.5 -0.057540017
N  N6  1  0.00000000  0.21900000  0.09700000  0.5 -0.057540017
N  N7  1  0.71900000  0.50000000  0.09700000  0.5 -0.057540017
N  N8  1  0.28100000  0.50000000  0.09700000  0.5 -0.057540017
O  O1  1  0.50000000  0.00000000  0.44100000  1.0 -0.7283379201
O  O2  1  0.00000000  0.50000000  0.55900000  1.0 -0.7283379201
O  O3  1  0.42440000  0.92440000  0.17900000  1.0 -0.46664407
O  O4  1  0.57560000  0.07560000  0.17900000  1.0 -0.46664407
O  O5  1  0.42440000  0.07560000  0.17900000  1.0 -0.46664407
O  O6  1  0.57560000  0.92440000  0.17900000  1.0 -0.46664407
O  O7  1  0.92440000  0.57560000  0.82100000  1.0 -0.46664407
O  O8  1  0.07560000  0.42440000  0.82100000  1.0 -0.46664407
O  O9  1  0.92440000  0.42440000  0.82100000  1.0 -0.46664407
O  O10  1  0.07560000  0.57560000  0.82100000  1.0 -0.46664407
O  O11  1  0.57600000  0.92400000  0.71600000  1.0 -0.3478941608
O  O12  1  0.42400000  0.07600000  0.71600000  1.0 -0.3478941608
O  O13  1  0.42400000  0.92400000  0.71600000  1.0 -0.3478941608
O  O14  1  0.57600000  0.07600000  0.71600000  1.0 -0.3478941608
O  O15  1  0.07600000  0.57600000  0.28400000  1.0 -0.3478941608
O  O16  1  0.92400000  0.42400000  0.28400000  1.0 -0.3478941608
O  O17  1  0.92400000  0.57600000  0.28400000  1.0 -0.3478941608
O  O18  1  0.07600000  0.42400000  0.28400000  1.0 -0.3478941608
O  O19  1  0.50000000  0.96500000  0.94400000  0.36 0.1073139768
O  O20  1  0.50000000  0.03500000  0.94400000  0.36 0.1073139768
O  O21  1  0.46500000  0.00000000  0.94400000  0.36 0.1073139768
O  O22  1  0.53500000  0.00000000  0.94400000  0.36 0.1073139768
O  O23  1  0.00000000  0.53500000  0.05600000  0.36 0.1073139768
O  O24  1  0.00000000  0.46500000  0.05600000  0.36 0.1073139768
O  O25  1  0.96500000  0.50000000  0.05600000  0.36 0.1039342072
O  O26  1  0.03500000  0.50000000  0.05600000  0.36 0.1073139768
O  O27  1  0.41640000  0.85580000  0.41600000  0.5 -0.313601977
O  O28  1  0.58360000  0.14420000  0.41600000  0.5 -0.313601977
O  O29  1  0.35580000  0.08360000  0.41600000  0.5 -0.313601977
O  O30  1  0.64420000  0.91640000  0.41600000  0.5 -0.313601977
O  O31  1  0.91640000  0.64420000  0.58400000  0.5 -0.3165020112
O  O32  1  0.08360000  0.35580000  0.58400000  0.5 -0.3165020112
O  O33  1  0.85580000  0.41640000  0.58400000  0.5 -0.3165020112
O  O34  1  0.14420000  0.58360000  0.58400000  0.5 -0.3165020112
O  O35  1  0.08360000  0.64420000  0.58400000  0.5 -0.3165020112
O  O36  1  0.91640000  0.35580000  0.58400000  0.5 -0.3165020112
O  O37  1  0.14420000  0.41640000  0.58400000  0.5 -0.3165020112
O  O38  1  0.85580000  0.58360000  0.58400000  0.5 -0.3165020112
O  O39  1  0.58360000  0.85580000  0.41600000  0.5 -0.313601977
O  O40  1  0.41640000  0.14420000  0.41600000  0.5 -0.313601977
O  O41  1  0.64420000  0.08360000  0.41600000  0.5 -0.313601977
O  O42  1  0.35580000  0.91640000  0.41600000  0.5 -0.313601977
O  O43  1  0.50000000  0.80300000  0.69100000  0.5 -0.249517179
O  O44  1  0.50000000  0.19700000  0.69100000  0.5 -0.249517179
O  O45  1  0.30300000  0.00000000  0.69100000  0.5 -0.249517179
O  O46  1  0.69700000  0.00000000  0.69100000  0.5 -0.249517179
O  O47  1  0.00000000  0.69700000  0.30900000  0.5 -0.249517179
O  O48  1  0.00000000  0.30300000  0.30900000  0.5 -0.249517179
O  O49  1  0.80300000  0.50000000  0.30900000  0.5 -0.249517179
O  O50  1  0.19700000  0.50000000  0.30900000  0.5 -0.249517179
O  O51  1  0.50000000  0.85200000  0.88800000  0.3 -0.1090745356
O  O52  1  0.50000000  0.14800000  0.88800000  0.3 -0.1090745356
O  O53  1  0.35200000  0.00000000  0.88800000  0.3 -0.1090745356
O  O54  1  0.64800000  0.00000000  0.88800000  0.3 -0.1090745356
O  O55  1  0.00000000  0.64800000  0.11200000  0.3 -0.1090745356
O  O56  1  0.00000000  0.35200000  0.11200000  0.3 -0.1090745356
O  O57  1  0.85200000  0.50000000  0.11200000  0.3 -0.1090745356
O  O58  1  0.14800000  0.50000000  0.11200000  0.3 -0.1090745356
