# DDEC6 charges by PACMAN v1.1 (https://github.com/mtap-research/PACMAN-charge/)
data_c7dt03932h2_ASR_pacman
_symmetry_space_group_name_H-M   'P 1'
_cell_length_a   12.05540000
_cell_length_b   14.95600000
_cell_length_c   36.89800000
_cell_angle_alpha   90.00000000
_cell_angle_beta   90.00000000
_cell_angle_gamma   90.00000000
_symmetry_Int_Tables_number   1
_chemical_formula_structural   Zn3H19C35NO12
_chemical_formula_sum   'Zn12 H76 C140 N4 O48'
_cell_volume   6652.73015144
_cell_formula_units_Z   4
loop_
 _symmetry_equiv_pos_site_id
 _symmetry_equiv_pos_as_xyz
  1  'x, y, z'
loop_
 _atom_site_type_symbol
 _atom_site_label
 _atom_site_symmetry_multiplicity
 _atom_site_fract_x
 _atom_site_fract_y
 _atom_site_fract_z
 _atom_site_occupancy
 _atom_site_charge
Zn  Zn1  1  0.05014000  0.62965000  0.82386000  1.0 0.9367674324
Zn  Zn2  1  0.46634000  0.24195000  0.57642000  1.0 0.8405332896
Zn  Zn3  1  0.17654000  0.15987000  0.60421000  1.0 1.0583252641
Zn  Zn4  1  0.44986000  0.37035000  0.32386000  1.0 0.9367674324
Zn  Zn5  1  0.03366000  0.75805000  0.07642000  1.0 0.8405332896
Zn  Zn6  1  0.32346000  0.84013000  0.10421000  1.0 1.0583252641
Zn  Zn7  1  0.94986000  0.12965000  0.67614000  1.0 0.9367674324
Zn  Zn8  1  0.53366000  0.74195000  0.92358000  1.0 0.8405332896
Zn  Zn9  1  0.82346000  0.65987000  0.89579000  1.0 1.0583252641
Zn  Zn10  1  0.55014000  0.87035000  0.17614000  1.0 0.9367674324
Zn  Zn11  1  0.96634000  0.25805000  0.42358000  1.0 0.8405332896
Zn  Zn12  1  0.67654000  0.34013000  0.39579000  1.0 1.0583252641
H  H1  1  0.13200000  0.41860000  0.63260000  1.0 0.1371115441
H  H2  1  0.06680000  0.56110000  0.63940000  1.0 0.1195304496
H  H3  1  0.35680000  0.66160000  0.61340000  1.0 0.112211981
H  H4  1  0.42890000  0.52090000  0.60390000  1.0 0.1264010682
H  H5  1  0.04840000  0.68690000  0.67210000  1.0 0.112211981
H  H6  1  0.98880000  0.83230000  0.68530000  1.0 0.1195304496
H  H7  1  0.19640000  0.91790000  0.60930000  1.0 0.1371115441
H  H8  1  0.26690000  0.78230000  0.60240000  1.0 0.1195304496
H  H9  1  0.64970000  0.05890000  0.63560000  1.0 0.1195304496
H  H10  1  0.73110000  0.96630000  0.67710000  1.0 0.1195304496
H  H11  1  0.44050000  0.87920000  0.71070000  1.0 0.112211981
H  H12  1  0.35310000  0.95710000  0.66600000  1.0 0.1195304496
H  H13  1  0.77770000  0.81910000  0.69320000  1.0 0.112211981
H  H14  1  0.88250000  0.74560000  0.73460000  1.0 0.112211981
H  H15  1  0.65610000  0.79620000  0.81010000  1.0 0.1264010682
H  H16  1  0.54490000  0.86470000  0.76500000  1.0 0.1195304496
H  H17  1  0.11070000  0.21340000  0.48960000  1.0 0.1195304496
H  H18  1  0.18530000  0.27710000  0.39100000  1.0 0.112211981
H  H19  1  0.42950000  0.24120000  0.46130000  1.0 0.1371115441
H  H20  1  0.36800000  0.58140000  0.13260000  1.0 0.1371115441
H  H21  1  0.43320000  0.43890000  0.13940000  1.0 0.1195304496
H  H22  1  0.14320000  0.33840000  0.11340000  1.0 0.112211981
H  H23  1  0.07110000  0.47910000  0.10390000  1.0 0.1264010682
H  H24  1  0.45160000  0.31310000  0.17210000  1.0 0.112211981
H  H25  1  0.51120000  0.16770000  0.18530000  1.0 0.1195304496
H  H26  1  0.30360000  0.08210000  0.10930000  1.0 0.1371115441
H  H27  1  0.23310000  0.21770000  0.10240000  1.0 0.1195304496
H  H28  1  0.85030000  0.94110000  0.13560000  1.0 0.1195304496
H  H29  1  0.76890000  0.03370000  0.17710000  1.0 0.1195304496
H  H30  1  0.05950000  0.12080000  0.21070000  1.0 0.112211981
H  H31  1  0.14690000  0.04290000  0.16600000  1.0 0.1195304496
H  H32  1  0.72230000  0.18090000  0.19320000  1.0 0.112211981
H  H33  1  0.61750000  0.25440000  0.23460000  1.0 0.112211981
H  H34  1  0.84390000  0.20380000  0.31010000  1.0 0.1264010682
H  H35  1  0.95510000  0.13530000  0.26500000  1.0 0.1195304496
H  H36  1  0.38930000  0.78660000  0.98960000  1.0 0.1195304496
H  H37  1  0.31470000  0.72290000  0.89100000  1.0 0.112211981
H  H38  1  0.07050000  0.75880000  0.96130000  1.0 0.1371115441
H  H39  1  0.86800000  0.91860000  0.86740000  1.0 0.1371115441
H  H40  1  0.93320000  0.06110000  0.86060000  1.0 0.1195304496
H  H41  1  0.64320000  0.16160000  0.88660000  1.0 0.112211981
H  H42  1  0.57110000  0.02090000  0.89610000  1.0 0.1264010682
H  H43  1  0.95160000  0.18690000  0.82790000  1.0 0.112211981
H  H44  1  0.01120000  0.33230000  0.81470000  1.0 0.1195304496
H  H45  1  0.80360000  0.41790000  0.89070000  1.0 0.1371115441
H  H46  1  0.73310000  0.28230000  0.89760000  1.0 0.1195304496
H  H47  1  0.35030000  0.55890000  0.86440000  1.0 0.1195304496
H  H48  1  0.26890000  0.46630000  0.82290000  1.0 0.1195304496
H  H49  1  0.55950000  0.37920000  0.78930000  1.0 0.112211981
H  H50  1  0.64690000  0.45710000  0.83400000  1.0 0.1195304496
H  H51  1  0.22230000  0.31910000  0.80680000  1.0 0.112211981
H  H52  1  0.11750000  0.24560000  0.76540000  1.0 0.112211981
H  H53  1  0.34390000  0.29620000  0.68990000  1.0 0.1264010682
H  H54  1  0.45510000  0.36470000  0.73500000  1.0 0.1195304496
H  H55  1  0.88930000  0.71340000  0.01040000  1.0 0.1195304496
H  H56  1  0.81470000  0.77710000  0.10900000  1.0 0.112211981
H  H57  1  0.57050000  0.74120000  0.03870000  1.0 0.1371115441
H  H58  1  0.63200000  0.08140000  0.36740000  1.0 0.1371115441
H  H59  1  0.56680000  0.93890000  0.36060000  1.0 0.1195304496
H  H60  1  0.85680000  0.83840000  0.38660000  1.0 0.112211981
H  H61  1  0.92890000  0.97910000  0.39610000  1.0 0.1264010682
H  H62  1  0.54840000  0.81310000  0.32790000  1.0 0.112211981
H  H63  1  0.48880000  0.66770000  0.31470000  1.0 0.1195304496
H  H64  1  0.69640000  0.58210000  0.39070000  1.0 0.1371115441
H  H65  1  0.76690000  0.71770000  0.39760000  1.0 0.1195304496
H  H66  1  0.14970000  0.44110000  0.36440000  1.0 0.1195304496
H  H67  1  0.23110000  0.53370000  0.32290000  1.0 0.1195304496
H  H68  1  0.94050000  0.62080000  0.28930000  1.0 0.112211981
H  H69  1  0.85310000  0.54290000  0.33400000  1.0 0.1195304496
H  H70  1  0.27770000  0.68090000  0.30680000  1.0 0.112211981
H  H71  1  0.38250000  0.75440000  0.26540000  1.0 0.112211981
H  H72  1  0.15610000  0.70380000  0.18990000  1.0 0.1264010682
H  H73  1  0.04490000  0.63530000  0.23500000  1.0 0.1195304496
H  H74  1  0.61070000  0.28660000  0.51040000  1.0 0.1195304496
H  H75  1  0.68530000  0.22290000  0.60900000  1.0 0.112211981
H  H76  1  0.92950000  0.25880000  0.53870000  1.0 0.1371115441
C  C1  1  0.32670000  0.36530000  0.60390000  1.0 0.5475015971
C  C2  1  0.28800000  0.45340000  0.61440000  1.0 -0.0563167832
C  C3  1  0.17790000  0.46710000  0.62770000  1.0 -0.0713819009
C  C4  1  0.14090000  0.55290000  0.63320000  1.0 -0.1468837154
C  C5  1  0.20650000  0.62680000  0.63010000  1.0 0.0713558108
C  C6  1  0.31170000  0.61220000  0.61760000  1.0 -0.161024217
C  C7  1  0.35510000  0.52740000  0.61080000  1.0 -0.0784723195
C  C8  1  0.16020000  0.71920000  0.63660000  1.0 0.0713558108
C  C9  1  0.08040000  0.73490000  0.66000000  1.0 -0.1422558944
C  C10  1  0.04150000  0.82250000  0.66740000  1.0 -0.1097022241
C  C11  1  0.08250000  0.89220000  0.64770000  1.0 -0.0134831596
C  C12  1  0.16700000  0.87150000  0.62300000  1.0 -0.1003280183
C  C13  1  0.20740000  0.79130000  0.61810000  1.0 -0.1422558944
C  C14  1  0.03860000  0.98510000  0.65270000  1.0 0.5682086083
C  C15  1  0.43740000  0.08960000  0.62280000  1.0 0.5798443253
C  C16  1  0.48890000  0.02160000  0.64820000  1.0 -0.0134831596
C  C17  1  0.60690000  0.02230000  0.65040000  1.0 -0.1097022241
C  C18  1  0.65410000  0.96620000  0.67540000  1.0 -0.1178800618
C  C19  1  0.60010000  0.91270000  0.69690000  1.0 0.0629058326
C  C20  1  0.48190000  0.91330000  0.69460000  1.0 -0.1422558944
C  C21  1  0.42930000  0.96280000  0.66920000  1.0 -0.1003280183
C  C22  1  0.65810000  0.85550000  0.72420000  1.0 0.079171631
C  C23  1  0.75180000  0.81600000  0.71690000  1.0 -0.1422558944
C  C24  1  0.81510000  0.77020000  0.74170000  1.0 -0.0873066471
C  C25  1  0.77870000  0.76010000  0.77790000  1.0 -0.0784723195
C  C26  1  0.68150000  0.79860000  0.78630000  1.0 -0.0713819009
C  C27  1  0.61540000  0.84370000  0.75920000  1.0 -0.161024217
C  C28  1  0.84600000  0.71950000  0.80460000  1.0 0.5798443253
C  C29  1  0.30730000  0.20930000  0.52160000  1.0 0.5798443253
C  C30  1  0.27580000  0.22520000  0.48180000  1.0 -0.0507446272
C  C31  1  0.16410000  0.22580000  0.47210000  1.0 0.0629058326
C  C32  1  0.20870000  0.26290000  0.41430000  1.0 0.0955300941
C  C33  1  0.32480000  0.26380000  0.42090000  1.0 -0.1178800618
C  C34  1  0.35460000  0.24330000  0.45530000  1.0 -0.0374276428
C  C35  1  0.40290000  0.28320000  0.39260000  1.0 0.5798443253
C  C36  1  0.17330000  0.63470000  0.10390000  1.0 0.5475015971
C  C37  1  0.21200000  0.54660000  0.11440000  1.0 -0.0563167832
C  C38  1  0.32210000  0.53290000  0.12770000  1.0 -0.0713819009
C  C39  1  0.35910000  0.44710000  0.13320000  1.0 -0.1468837154
C  C40  1  0.29350000  0.37320000  0.13010000  1.0 0.0713558108
C  C41  1  0.18830000  0.38780000  0.11760000  1.0 -0.161024217
C  C42  1  0.14490000  0.47260000  0.11080000  1.0 -0.0784723195
C  C43  1  0.33980000  0.28080000  0.13660000  1.0 0.0713558108
C  C44  1  0.41960000  0.26510000  0.16000000  1.0 -0.1422558944
C  C45  1  0.45850000  0.17750000  0.16740000  1.0 -0.1097022241
C  C46  1  0.41750000  0.10780000  0.14770000  1.0 -0.0134831596
C  C47  1  0.33300000  0.12850000  0.12300000  1.0 -0.1003280183
C  C48  1  0.29260000  0.20870000  0.11810000  1.0 -0.1422558944
C  C49  1  0.46140000  0.01490000  0.15270000  1.0 0.5682086083
C  C50  1  0.06260000  0.91040000  0.12280000  1.0 0.5798443253
C  C51  1  0.01110000  0.97840000  0.14820000  1.0 -0.0134831596
C  C52  1  0.89310000  0.97770000  0.15040000  1.0 -0.1097022241
C  C53  1  0.84590000  0.03380000  0.17540000  1.0 -0.1178800618
C  C54  1  0.89990000  0.08730000  0.19690000  1.0 0.0629058326
C  C55  1  0.01810000  0.08670000  0.19460000  1.0 -0.1422558944
C  C56  1  0.07070000  0.03720000  0.16920000  1.0 -0.1003280183
C  C57  1  0.84190000  0.14450000  0.22420000  1.0 0.079171631
C  C58  1  0.74820000  0.18400000  0.21690000  1.0 -0.1422558944
C  C59  1  0.68490000  0.22980000  0.24170000  1.0 -0.0873066471
C  C60  1  0.72130000  0.23990000  0.27790000  1.0 -0.0784723195
C  C61  1  0.81850000  0.20140000  0.28630000  1.0 -0.0713819009
C  C62  1  0.88460000  0.15630000  0.25920000  1.0 -0.161024217
C  C63  1  0.65400000  0.28050000  0.30460000  1.0 0.5798443253
C  C64  1  0.19270000  0.79070000  0.02160000  1.0 0.5798443253
C  C65  1  0.22420000  0.77480000  0.98180000  1.0 -0.0507446272
C  C66  1  0.33590000  0.77420000  0.97210000  1.0 0.0629058326
C  C67  1  0.29130000  0.73710000  0.91430000  1.0 0.0955300941
C  C68  1  0.17520000  0.73620000  0.92090000  1.0 -0.1178800618
C  C69  1  0.14540000  0.75670000  0.95530000  1.0 -0.0374276428
C  C70  1  0.09710000  0.71680000  0.89260000  1.0 0.5798443253
C  C71  1  0.67330000  0.86530000  0.89610000  1.0 0.5475015971
C  C72  1  0.71200000  0.95340000  0.88560000  1.0 -0.0563167832
C  C73  1  0.82210000  0.96710000  0.87230000  1.0 -0.0713819009
C  C74  1  0.85910000  0.05290000  0.86680000  1.0 -0.1468837154
C  C75  1  0.79350000  0.12680000  0.86990000  1.0 0.0713558108
C  C76  1  0.68830000  0.11220000  0.88240000  1.0 -0.161024217
C  C77  1  0.64490000  0.02740000  0.88920000  1.0 -0.0784723195
C  C78  1  0.83980000  0.21920000  0.86340000  1.0 0.0713558108
C  C79  1  0.91960000  0.23490000  0.84000000  1.0 -0.1422558944
C  C80  1  0.95850000  0.32250000  0.83260000  1.0 -0.1003280183
C  C81  1  0.91750000  0.39220000  0.85230000  1.0 -0.0134831596
C  C82  1  0.83300000  0.37150000  0.87700000  1.0 -0.1003280183
C  C83  1  0.79260000  0.29130000  0.88190000  1.0 -0.1422558944
C  C84  1  0.96140000  0.48510000  0.84730000  1.0 0.5682086083
C  C85  1  0.56260000  0.58960000  0.87720000  1.0 0.5798443253
C  C86  1  0.51110000  0.52160000  0.85180000  1.0 -0.0134831596
C  C87  1  0.39310000  0.52230000  0.84960000  1.0 -0.1097022241
C  C88  1  0.34590000  0.46620000  0.82460000  1.0 -0.1178800618
C  C89  1  0.39990000  0.41270000  0.80310000  1.0 0.0629058326
C  C90  1  0.51810000  0.41330000  0.80540000  1.0 -0.1422558944
C  C91  1  0.57070000  0.46280000  0.83080000  1.0 -0.1003280183
C  C92  1  0.34190000  0.35550000  0.77580000  1.0 0.079171631
C  C93  1  0.24820000  0.31600000  0.78310000  1.0 -0.1422558944
C  C94  1  0.18490000  0.27020000  0.75830000  1.0 -0.0873066471
C  C95  1  0.22130000  0.26010000  0.72210000  1.0 -0.0784723195
C  C96  1  0.31850000  0.29860000  0.71370000  1.0 -0.0713819009
C  C97  1  0.38460000  0.34370000  0.74080000  1.0 -0.161024217
C  C98  1  0.15400000  0.21950000  0.69540000  1.0 0.5798443253
C  C99  1  0.69270000  0.70930000  0.97840000  1.0 0.5798443253
C  C100  1  0.72420000  0.72520000  0.01820000  1.0 -0.0507446272
C  C101  1  0.83590000  0.72580000  0.02790000  1.0 0.0629058326
C  C102  1  0.79130000  0.76290000  0.08570000  1.0 0.0955300941
C  C103  1  0.67520000  0.76380000  0.07910000  1.0 -0.1178800618
C  C104  1  0.64540000  0.74330000  0.04470000  1.0 -0.0374276428
C  C105  1  0.59710000  0.78320000  0.10740000  1.0 0.5798443253
C  C106  1  0.82670000  0.13470000  0.39610000  1.0 0.5475015971
C  C107  1  0.78800000  0.04660000  0.38560000  1.0 -0.0563167832
C  C108  1  0.67790000  0.03290000  0.37230000  1.0 -0.0713819009
C  C109  1  0.64090000  0.94710000  0.36680000  1.0 -0.1468837154
C  C110  1  0.70650000  0.87320000  0.36990000  1.0 0.0713558108
C  C111  1  0.81170000  0.88780000  0.38240000  1.0 -0.161024217
C  C112  1  0.85510000  0.97260000  0.38920000  1.0 -0.0784723195
C  C113  1  0.66020000  0.78080000  0.36340000  1.0 0.0713558108
C  C114  1  0.58040000  0.76510000  0.34000000  1.0 -0.1422558944
C  C115  1  0.54150000  0.67750000  0.33260000  1.0 -0.1097022241
C  C116  1  0.58250000  0.60780000  0.35230000  1.0 -0.0134831596
C  C117  1  0.66700000  0.62850000  0.37700000  1.0 -0.1003280183
C  C118  1  0.70740000  0.70870000  0.38190000  1.0 -0.1422558944
C  C119  1  0.53860000  0.51490000  0.34730000  1.0 0.5682086083
C  C120  1  0.93740000  0.41040000  0.37720000  1.0 0.5798443253
C  C121  1  0.98890000  0.47840000  0.35180000  1.0 -0.0134831596
C  C122  1  0.10690000  0.47770000  0.34960000  1.0 -0.1097022241
C  C123  1  0.15410000  0.53380000  0.32460000  1.0 -0.1178800618
C  C124  1  0.10010000  0.58730000  0.30310000  1.0 0.0629058326
C  C125  1  0.98190000  0.58670000  0.30540000  1.0 -0.1422558944
C  C126  1  0.92930000  0.53720000  0.33080000  1.0 -0.1003280183
C  C127  1  0.15810000  0.64450000  0.27580000  1.0 0.079171631
C  C128  1  0.25180000  0.68400000  0.28310000  1.0 -0.1422558944
C  C129  1  0.31510000  0.72980000  0.25830000  1.0 -0.0873066471
C  C130  1  0.27870000  0.73990000  0.22210000  1.0 -0.0784723195
C  C131  1  0.18150000  0.70140000  0.21370000  1.0 -0.0713819009
C  C132  1  0.11540000  0.65630000  0.24080000  1.0 -0.161024217
C  C133  1  0.34600000  0.78050000  0.19540000  1.0 0.5798443253
C  C134  1  0.80730000  0.29070000  0.47840000  1.0 0.5798443253
C  C135  1  0.77580000  0.27480000  0.51820000  1.0 -0.0507446272
C  C136  1  0.66410000  0.27420000  0.52790000  1.0 0.0629058326
C  C137  1  0.70870000  0.23710000  0.58570000  1.0 0.0955300941
C  C138  1  0.82480000  0.23620000  0.57910000  1.0 -0.1178800618
C  C139  1  0.85460000  0.25670000  0.54470000  1.0 -0.0374276428
C  C140  1  0.90290000  0.21680000  0.60740000  1.0 0.5798443253
N  N1  1  0.13240000  0.24400000  0.43800000  1.0 -0.2296695528
N  N2  1  0.36760000  0.75600000  0.93800000  1.0 -0.2296695528
N  N3  1  0.86760000  0.74400000  0.06200000  1.0 -0.2296695528
N  N4  1  0.63240000  0.25600000  0.56200000  1.0 -0.2296695528
O  O1  1  0.27060000  0.30120000  0.60350000  1.0 -0.4618593571
O  O2  1  0.43190000  0.35920000  0.59550000  1.0 -0.540889927
O  O3  1  0.96070000  0.99720000  0.67530000  1.0 -0.54636116
O  O4  1  0.07910000  0.04740000  0.63610000  1.0 -0.5343936947
O  O5  1  0.33710000  0.07810000  0.61530000  1.0 -0.5612271619
O  O6  1  0.49610000  0.14970000  0.61060000  1.0 -0.5343936947
O  O7  1  0.80450000  0.70150000  0.83550000  1.0 -0.5612271619
O  O8  1  0.94450000  0.69610000  0.79560000  1.0 -0.5725825992
O  O9  1  0.23570000  0.18850000  0.54250000  1.0 -0.54636116
O  O10  1  0.40860000  0.22330000  0.52780000  1.0 -0.540889927
O  O11  1  0.36490000  0.31620000  0.36239000  1.0 -0.58531813
O  O12  1  0.50350000  0.27020000  0.39810000  1.0 -0.540889927
O  O13  1  0.22940000  0.69880000  0.10350000  1.0 -0.4618593571
O  O14  1  0.06810000  0.64080000  0.09550000  1.0 -0.540889927
O  O15  1  0.53930000  0.00280000  0.17530000  1.0 -0.54636116
O  O16  1  0.42090000  0.95260000  0.13610000  1.0 -0.5343936947
O  O17  1  0.16290000  0.92190000  0.11530000  1.0 -0.5612271619
O  O18  1  0.00390000  0.85030000  0.11060000  1.0 -0.5343936947
O  O19  1  0.69550000  0.29850000  0.33550000  1.0 -0.5612271619
O  O20  1  0.55550000  0.30390000  0.29560000  1.0 -0.5725825992
O  O21  1  0.26430000  0.81150000  0.04250000  1.0 -0.54636116
O  O22  1  0.09140000  0.77670000  0.02780000  1.0 -0.540889927
O  O23  1  0.13510000  0.68380000  0.86239000  1.0 -0.58531813
O  O24  1  0.99650000  0.72980000  0.89810000  1.0 -0.540889927
O  O25  1  0.72940000  0.80120000  0.89650000  1.0 -0.4618593571
O  O26  1  0.56810000  0.85920000  0.90450000  1.0 -0.540889927
O  O27  1  0.03930000  0.49720000  0.82470000  1.0 -0.54636116
O  O28  1  0.92090000  0.54740000  0.86390000  1.0 -0.540889927
O  O29  1  0.66290000  0.57810000  0.88470000  1.0 -0.5612271619
O  O30  1  0.50390000  0.64970000  0.88940000  1.0 -0.5343936947
O  O31  1  0.19550000  0.20150000  0.66450000  1.0 -0.5612271619
O  O32  1  0.05550000  0.19610000  0.70440000  1.0 -0.5725825992
O  O33  1  0.76430000  0.68850000  0.95750000  1.0 -0.54636116
O  O34  1  0.59140000  0.72330000  0.97220000  1.0 -0.540889927
O  O35  1  0.63510000  0.81620000  0.13761000  1.0 -0.58531813
O  O36  1  0.49650000  0.77020000  0.10190000  1.0 -0.540889927
O  O37  1  0.77060000  0.19880000  0.39650000  1.0 -0.4618593571
O  O38  1  0.93190000  0.14080000  0.40450000  1.0 -0.540889927
O  O39  1  0.46070000  0.50280000  0.32470000  1.0 -0.54636116
O  O40  1  0.57910000  0.45260000  0.36390000  1.0 -0.5343936947
O  O41  1  0.83710000  0.42190000  0.38470000  1.0 -0.5612271619
O  O42  1  0.99610000  0.35030000  0.38940000  1.0 -0.5343936947
O  O43  1  0.30450000  0.79850000  0.16450000  1.0 -0.5612271619
O  O44  1  0.44450000  0.80390000  0.20440000  1.0 -0.5725825992
O  O45  1  0.73570000  0.31150000  0.45750000  1.0 -0.54636116
O  O46  1  0.90860000  0.27670000  0.47220000  1.0 -0.540889927
O  O47  1  0.86490000  0.18380000  0.63761000  1.0 -0.58531813
O  O48  1  0.00350000  0.22980000  0.60190000  1.0 -0.540889927
