# DDEC6 charges by PACMAN v1.1 (https://github.com/mtap-research/PACMAN-charge/)
data_c5dt03710g2_3_FSR_pacman
_symmetry_space_group_name_H-M   'P 1'
_cell_length_a   10.95040000
_cell_length_b   10.95040000
_cell_length_c   9.60320000
_cell_angle_alpha   90.00000000
_cell_angle_beta   90.00000000
_cell_angle_gamma   90.00000000
_symmetry_Int_Tables_number   1
_chemical_formula_structural   ZnH16C11NO4
_chemical_formula_sum   'Zn2 H32 C22 N2 O8'
_cell_volume   1151.53181357
_cell_formula_units_Z   2
loop_
 _symmetry_equiv_pos_site_id
 _symmetry_equiv_pos_as_xyz
  1  'x, y, z'
loop_
 _atom_site_type_symbol
 _atom_site_label
 _atom_site_symmetry_multiplicity
 _atom_site_fract_x
 _atom_site_fract_y
 _atom_site_fract_z
 _atom_site_occupancy
 _atom_site_charge
Zn  Zn1  1  0.00000000  0.00000000  0.34998000  1.0 0.8293822207
Zn  Zn2  1  0.00000000  0.00000000  0.65002000  1.0 0.8293822207
H  H1  1  0.00000000  0.39380000  0.70840000  1.0 0.1411241838
H  H2  1  0.00000000  0.60620000  0.70840000  1.0 0.1411241838
H  H3  1  0.39380000  0.00000000  0.70840000  1.0 0.1411241838
H  H4  1  0.60620000  0.00000000  0.70840000  1.0 0.1411241838
H  H5  1  0.00000000  0.60620000  0.29160000  1.0 0.1411241838
H  H6  1  0.00000000  0.39380000  0.29160000  1.0 0.1411241838
H  H7  1  0.39380000  0.00000000  0.29160000  1.0 0.1411241838
H  H8  1  0.60620000  0.00000000  0.29160000  1.0 0.1411241838
H  H9  1  0.12560000  0.13220000  0.11420000  0.75 0.1113916547
H  H10  1  0.87440000  0.86780000  0.11420000  0.75 0.1113916547
H  H11  1  0.13220000  0.87440000  0.11420000  0.75 0.1113916547
H  H12  1  0.86780000  0.12560000  0.11420000  0.75 0.1113916547
H  H13  1  0.12560000  0.86780000  0.88580000  0.75 0.1113916547
H  H14  1  0.87440000  0.13220000  0.88580000  0.75 0.1113916547
H  H15  1  0.13220000  0.12560000  0.88580000  0.75 0.1113916547
H  H16  1  0.86780000  0.87440000  0.88580000  0.75 0.1113916547
H  H17  1  0.87440000  0.86780000  0.88580000  0.75 0.1113916547
H  H18  1  0.12560000  0.13220000  0.88580000  0.75 0.1113916547
H  H19  1  0.86780000  0.12560000  0.88580000  0.75 0.1113916547
H  H20  1  0.13220000  0.87440000  0.88580000  0.75 0.1113916547
H  H21  1  0.87440000  0.13220000  0.11420000  0.75 0.1113916547
H  H22  1  0.12560000  0.86780000  0.11420000  0.75 0.1113916547
H  H23  1  0.86780000  0.87440000  0.11420000  0.75 0.1113916547
H  H24  1  0.13220000  0.12560000  0.11420000  0.75 0.1113916547
H  H25  1  0.18240000  0.99730000  0.11420000  0.75 0.1113916547
H  H26  1  0.81760000  0.00270000  0.11420000  0.75 0.1113916547
H  H27  1  0.99730000  0.81760000  0.11420000  0.75 0.1113916547
H  H28  1  0.00270000  0.18240000  0.11420000  0.75 0.1113916547
H  H29  1  0.18240000  0.00270000  0.88580000  0.75 0.1113916547
H  H30  1  0.81760000  0.99730000  0.88580000  0.75 0.1113916547
H  H31  1  0.99730000  0.18240000  0.88580000  0.75 0.1113916547
H  H32  1  0.00270000  0.81760000  0.88580000  0.75 0.1113916547
H  H33  1  0.81760000  0.00270000  0.88580000  0.75 0.1113916547
H  H34  1  0.18240000  0.99730000  0.88580000  0.75 0.1113916547
H  H35  1  0.00270000  0.18240000  0.88580000  0.75 0.1113916547
H  H36  1  0.99730000  0.81760000  0.88580000  0.75 0.1113916547
H  H37  1  0.81760000  0.99730000  0.11420000  0.75 0.1113916547
H  H38  1  0.18240000  0.00270000  0.11420000  0.75 0.1113916547
H  H39  1  0.00270000  0.81760000  0.11420000  0.75 0.1113916547
H  H40  1  0.99730000  0.18240000  0.11420000  0.75 0.1113916547
C  C1  1  0.00000000  0.23529000  0.50000000  1.0 0.5747273066
C  C2  1  0.00000000  0.76471000  0.50000000  1.0 0.5747273066
C  C3  1  0.23529000  0.00000000  0.50000000  1.0 0.5747273066
C  C4  1  0.76471000  0.00000000  0.50000000  1.0 0.5747273066
C  C5  1  0.00000000  0.37258000  0.50000000  1.0 0.0590652558
C  C6  1  0.00000000  0.62742000  0.50000000  1.0 0.0590652558
C  C7  1  0.37258000  0.00000000  0.50000000  1.0 0.0590652558
C  C8  1  0.62742000  0.00000000  0.50000000  1.0 0.0590652558
C  C9  1  0.00000000  0.43666000  0.62239000  1.0 -0.1075122408
C  C10  1  0.00000000  0.56334000  0.62239000  1.0 -0.1075122408
C  C11  1  0.43666000  0.00000000  0.62239000  1.0 -0.1075122408
C  C12  1  0.56334000  0.00000000  0.62239000  1.0 -0.1075122408
C  C13  1  0.00000000  0.56334000  0.37761000  1.0 -0.1075122408
C  C14  1  0.00000000  0.43666000  0.37761000  1.0 -0.1075122408
C  C15  1  0.43666000  0.00000000  0.37761000  1.0 -0.1075122408
C  C16  1  0.56334000  0.00000000  0.37761000  1.0 -0.1075122408
C  C17  1  0.11360000  0.04780000  0.07990000  0.375 -0.0686995224
C  C18  1  0.88640000  0.95220000  0.07990000  0.375 -0.0686995224
C  C19  1  0.04780000  0.88640000  0.07990000  0.375 -0.0686995224
C  C20  1  0.95220000  0.11360000  0.07990000  0.375 -0.0686995224
C  C21  1  0.11360000  0.95220000  0.92010000  0.375 -0.0686995224
C  C22  1  0.88640000  0.04780000  0.92010000  0.375 -0.0686995224
C  C23  1  0.04780000  0.11360000  0.92010000  0.375 -0.0686995224
C  C24  1  0.95220000  0.88640000  0.92010000  0.375 -0.0686995224
C  C25  1  0.88640000  0.95220000  0.92010000  0.375 -0.0686995224
C  C26  1  0.11360000  0.04780000  0.92010000  0.375 -0.0686995224
C  C27  1  0.95220000  0.11360000  0.92010000  0.375 -0.0686995224
C  C28  1  0.04780000  0.88640000  0.92010000  0.375 -0.0686995224
C  C29  1  0.88640000  0.04780000  0.07990000  0.375 -0.0686995224
C  C30  1  0.11360000  0.95220000  0.07990000  0.375 -0.0686995224
C  C31  1  0.95220000  0.88640000  0.07990000  0.375 -0.0686995224
C  C32  1  0.04780000  0.11360000  0.07990000  0.375 -0.0686995224
N  N1  1  0.00000000  0.00000000  0.13410000  1.0 -0.0885328367
N  N2  1  0.00000000  0.00000000  0.86590000  1.0 -0.0885328367
O  O1  1  0.01630000  0.18270000  0.38467000  0.5 -0.421944072
O  O2  1  0.98370000  0.81730000  0.38467000  0.5 -0.421944072
O  O3  1  0.18270000  0.98370000  0.38467000  0.5 -0.421944072
O  O4  1  0.81730000  0.01630000  0.38467000  0.5 -0.421944072
O  O5  1  0.01630000  0.81730000  0.61533000  0.5 -0.421944072
O  O6  1  0.98370000  0.18270000  0.61533000  0.5 -0.421944072
O  O7  1  0.18270000  0.01630000  0.61533000  0.5 -0.421944072
O  O8  1  0.81730000  0.98370000  0.61533000  0.5 -0.421944072
O  O9  1  0.98370000  0.81730000  0.61533000  0.5 -0.421944072
O  O10  1  0.01630000  0.18270000  0.61533000  0.5 -0.421944072
O  O11  1  0.81730000  0.01630000  0.61533000  0.5 -0.421944072
O  O12  1  0.18270000  0.98370000  0.61533000  0.5 -0.421944072
O  O13  1  0.98370000  0.18270000  0.38467000  0.5 -0.421944072
O  O14  1  0.01630000  0.81730000  0.38467000  0.5 -0.421944072
O  O15  1  0.81730000  0.98370000  0.38467000  0.5 -0.421944072
O  O16  1  0.18270000  0.01630000  0.38467000  0.5 -0.421944072
