# DDEC6 charges by PACMAN v1.1 (https://github.com/mtap-research/PACMAN-charge/)
data_2022[Zn][hcb]2[ION]1
_chemical_formula_sum              "Zn8 H168 C128 N16 O48"
_cell_length_a       11.3262
_cell_length_b       18.3597
_cell_length_c       30.8839
_cell_angle_alpha    90
_cell_angle_beta     90
_cell_angle_gamma    90

_symmetry_space_group_name_H-M    "P 1"
_symmetry_Int_Tables_number       1

loop_
  _symmetry_equiv_pos_as_xyz
  'x, y, z'

loop_
  _atom_site_type_symbol
  _atom_site_label
  _atom_site_symmetry_multiplicity
  _atom_site_fract_x
  _atom_site_fract_y
  _atom_site_fract_z
  _atom_site_occupancy
  _atom_site_charge
Zn  Zn1       1.0  0.68144  0.24800  0.57431  1.0000 0.8284683816
Zn  Zn2       1.0  0.31856  0.75200  0.07431  1.0000 0.8284683816
Zn  Zn3       1.0  0.31856  0.75200  0.42569  1.0000 0.8284683816
Zn  Zn4       1.0  0.68144  0.24800  0.92569  1.0000 0.8284683816
Zn  Zn5       1.0  0.18144  0.25200  0.42569  1.0000 0.8284683816
Zn  Zn6       1.0  0.81856  0.74800  0.92569  1.0000 0.8284683816
Zn  Zn7       1.0  0.81856  0.74800  0.57431  1.0000 0.8284683816
Zn  Zn8       1.0  0.18144  0.25200  0.07431  1.0000 0.8284683816
H   H1        1.0  0.86209  0.21806  0.52790  1.0000 0.2524613135
H   H2        1.0  0.69372  0.46432  0.51541  1.0000 0.1133665696
H   H3        1.0  0.47897  0.04337  0.57044  1.0000 0.1210929914
H   H4        1.0  0.61192  0.06558  0.45043  1.0000 0.1210929914
H   H5        1.0  0.34375  0.41873  0.51164  1.0000 0.1133665696
H   H6        1.0  0.43199  0.28523  0.71205  1.0000 0.1133665696
H   H7        1.0  0.88809  0.34012  0.55259  1.0000 0.1294842833
H   H8        1.0  0.00656  0.29271  0.55436  1.0000 0.1294842833
H   H9        1.0  0.93378  0.30821  0.59780  1.0000 0.1294842833
H   H10       1.0  0.90492  0.18277  0.61535  1.0000 0.1294842833
H   H11       1.0  0.98948  0.16282  0.57556  1.0000 0.1210929914
H   H12       1.0  0.86160  0.12627  0.57923  1.0000 0.1294842833
H   H13       1.0  0.78202  0.24989  0.71273  1.0000 0.1210929914
H   H14       1.0  0.13791  0.78194  0.02790  1.0000 0.2524613135
H   H15       1.0  0.30628  0.53568  0.01541  1.0000 0.1133665696
H   H16       1.0  0.52103  0.95663  0.07044  1.0000 0.1210929914
H   H17       1.0  0.38808  0.93442  0.95043  1.0000 0.1210929914
H   H18       1.0  0.65625  0.58127  0.01164  1.0000 0.1133665696
H   H19       1.0  0.56801  0.71477  0.21205  1.0000 0.1133665696
H   H20       1.0  0.11191  0.65988  0.05259  1.0000 0.1294842833
H   H21       1.0  0.99344  0.70729  0.05436  1.0000 0.1294842833
H   H22       1.0  0.06622  0.69179  0.09780  1.0000 0.1294842833
H   H23       1.0  0.09508  0.81723  0.11535  1.0000 0.1294842833
H   H24       1.0  0.01052  0.83718  0.07556  1.0000 0.1210929914
H   H25       1.0  0.13840  0.87373  0.07923  1.0000 0.1294842833
H   H26       1.0  0.21798  0.75011  0.21273  1.0000 0.1210929914
H   H27       1.0  0.13791  0.78194  0.47210  1.0000 0.2524613135
H   H28       1.0  0.30628  0.53568  0.48459  1.0000 0.1133665696
H   H29       1.0  0.52103  0.95663  0.42956  1.0000 0.1210929914
H   H30       1.0  0.38808  0.93442  0.54957  1.0000 0.1210929914
H   H31       1.0  0.65625  0.58127  0.48836  1.0000 0.1133665696
H   H32       1.0  0.56801  0.71477  0.28795  1.0000 0.1133665696
H   H33       1.0  0.11191  0.65988  0.44741  1.0000 0.1294842833
H   H34       1.0  0.99344  0.70729  0.44564  1.0000 0.1294842833
H   H35       1.0  0.06622  0.69179  0.40220  1.0000 0.1294842833
H   H36       1.0  0.09508  0.81723  0.38465  1.0000 0.1294842833
H   H37       1.0  0.01052  0.83718  0.42444  1.0000 0.1210929914
H   H38       1.0  0.13840  0.87373  0.42077  1.0000 0.1294842833
H   H39       1.0  0.21798  0.75011  0.28727  1.0000 0.1210929914
H   H40       1.0  0.86209  0.21806  0.97210  1.0000 0.2524613135
H   H41       1.0  0.69372  0.46432  0.98459  1.0000 0.1133665696
H   H42       1.0  0.47897  0.04337  0.92956  1.0000 0.1210929914
H   H43       1.0  0.61192  0.06558  0.04957  1.0000 0.1210929914
H   H44       1.0  0.34375  0.41873  0.98836  1.0000 0.1133665696
H   H45       1.0  0.43199  0.28523  0.78795  1.0000 0.1133665696
H   H46       1.0  0.88809  0.34012  0.94741  1.0000 0.1294842833
H   H47       1.0  0.00656  0.29271  0.94564  1.0000 0.1294842833
H   H48       1.0  0.93378  0.30821  0.90220  1.0000 0.1294842833
H   H49       1.0  0.90492  0.18277  0.88465  1.0000 0.1294842833
H   H50       1.0  0.98948  0.16282  0.92444  1.0000 0.1210929914
H   H51       1.0  0.86160  0.12627  0.92077  1.0000 0.1294842833
H   H52       1.0  0.78202  0.24989  0.78727  1.0000 0.1210929914
H   H53       1.0  0.36209  0.28194  0.47210  1.0000 0.2524613135
H   H54       1.0  0.19372  0.03568  0.48459  1.0000 0.1133665696
H   H55       1.0  0.97897  0.45663  0.42956  1.0000 0.1210929914
H   H56       1.0  0.11192  0.43442  0.54957  1.0000 0.1210929914
H   H57       1.0  0.84375  0.08127  0.48836  1.0000 0.1133665696
H   H58       1.0  0.93199  0.21477  0.28795  1.0000 0.1133665696
H   H59       1.0  0.38809  0.15988  0.44741  1.0000 0.1294842833
H   H60       1.0  0.50656  0.20729  0.44564  1.0000 0.1294842833
H   H61       1.0  0.43378  0.19179  0.40220  1.0000 0.1294842833
H   H62       1.0  0.40492  0.31723  0.38465  1.0000 0.1294842833
H   H63       1.0  0.48948  0.33718  0.42444  1.0000 0.1210929914
H   H64       1.0  0.36160  0.37373  0.42077  1.0000 0.1294842833
H   H65       1.0  0.28202  0.25011  0.28727  1.0000 0.1210929914
H   H66       1.0  0.63791  0.71806  0.97210  1.0000 0.2524613135
H   H67       1.0  0.80628  0.96432  0.98459  1.0000 0.1133665696
H   H68       1.0  0.02103  0.54337  0.92956  1.0000 0.1210929914
H   H69       1.0  0.88808  0.56558  0.04957  1.0000 0.1210929914
H   H70       1.0  0.15625  0.91873  0.98836  1.0000 0.1133665696
H   H71       1.0  0.06801  0.78523  0.78795  1.0000 0.1133665696
H   H72       1.0  0.61191  0.84012  0.94741  1.0000 0.1294842833
H   H73       1.0  0.49344  0.79271  0.94564  1.0000 0.1294842833
H   H74       1.0  0.56622  0.80821  0.90220  1.0000 0.1294842833
H   H75       1.0  0.59508  0.68277  0.88465  1.0000 0.1294842833
H   H76       1.0  0.51052  0.66282  0.92444  1.0000 0.1210929914
H   H77       1.0  0.63840  0.62627  0.92077  1.0000 0.1294842833
H   H78       1.0  0.71798  0.74989  0.78727  1.0000 0.1210929914
H   H79       1.0  0.63791  0.71806  0.52790  1.0000 0.2524613135
H   H80       1.0  0.80628  0.96432  0.51541  1.0000 0.1133665696
H   H81       1.0  0.02103  0.54337  0.57044  1.0000 0.1210929914
H   H82       1.0  0.88808  0.56558  0.45043  1.0000 0.1210929914
H   H83       1.0  0.15625  0.91873  0.51164  1.0000 0.1133665696
H   H84       1.0  0.06801  0.78523  0.71205  1.0000 0.1133665696
H   H85       1.0  0.61191  0.84012  0.55259  1.0000 0.1294842833
H   H86       1.0  0.49344  0.79271  0.55436  1.0000 0.1294842833
H   H87       1.0  0.56622  0.80821  0.59780  1.0000 0.1294842833
H   H88       1.0  0.59508  0.68277  0.61535  1.0000 0.1294842833
H   H89       1.0  0.51052  0.66282  0.57556  1.0000 0.1210929914
H   H90       1.0  0.63840  0.62627  0.57923  1.0000 0.1294842833
H   H91       1.0  0.71798  0.74989  0.71273  1.0000 0.1210929914
H   H92       1.0  0.36209  0.28194  0.02790  1.0000 0.2524613135
H   H93       1.0  0.19372  0.03568  0.01541  1.0000 0.1133665696
H   H94       1.0  0.97897  0.45663  0.07044  1.0000 0.1210929914
H   H95       1.0  0.11192  0.43442  0.95043  1.0000 0.1210929914
H   H96       1.0  0.84375  0.08127  0.01164  1.0000 0.1133665696
H   H97       1.0  0.93199  0.21477  0.21205  1.0000 0.1133665696
H   H98       1.0  0.38809  0.15988  0.05259  1.0000 0.1294842833
H   H99       1.0  0.50656  0.20729  0.05436  1.0000 0.1294842833
H   H100      1.0  0.43378  0.19179  0.09780  1.0000 0.1294842833
H   H101      1.0  0.40492  0.31723  0.11535  1.0000 0.1294842833
H   H102      1.0  0.48948  0.33718  0.07556  1.0000 0.1210929914
H   H103      1.0  0.36160  0.37373  0.07923  1.0000 0.1294842833
H   H104      1.0  0.28202  0.25011  0.21273  1.0000 0.1210929914
H   H105      1.0  0.39820  0.24332  0.92774  1.0000 0.279502
H   H106      1.0  0.36500  0.18630  0.89654  1.0000 0.2616696053
H   H107      1.0  0.21931  0.14414  0.93833  1.0000 0.1210929914
H   H108      1.0  0.33541  0.15030  0.96763  1.0000 0.1294842833
H   H109      1.0  0.23598  0.21207  0.97022  1.0000 0.1398617997
H   H110      1.0  0.18791  0.24325  0.88276  1.0000 0.1294842833
H   H111      1.0  0.22779  0.30613  0.91554  1.0000 0.1398617997
H   H112      1.0  0.29769  0.29446  0.87104  1.0000 0.1398617997
H   H113      1.0  0.89820  0.25668  0.07226  1.0000 0.279502
H   H114      1.0  0.86500  0.31370  0.10346  1.0000 0.2616696053
H   H115      1.0  0.71931  0.35586  0.06167  1.0000 0.1294842833
H   H116      1.0  0.83541  0.34970  0.03237  1.0000 0.1294842833
H   H117      1.0  0.73598  0.28793  0.02978  1.0000 0.1398617997
H   H118      1.0  0.68791  0.25675  0.11724  1.0000 0.1294842833
H   H119      1.0  0.72779  0.19387  0.08446  1.0000 0.1398617997
H   H120      1.0  0.79769  0.20554  0.12896  1.0000 0.1398617997
H   H121      1.0  0.60180  0.75668  0.42774  1.0000 0.279502
H   H122      1.0  0.63500  0.81370  0.39654  1.0000 0.2616696053
H   H123      1.0  0.78069  0.85586  0.43833  1.0000 0.1210929914
H   H124      1.0  0.66459  0.84970  0.46763  1.0000 0.1294842833
H   H125      1.0  0.76402  0.78793  0.47022  1.0000 0.1398617997
H   H126      1.0  0.81209  0.75675  0.38276  1.0000 0.1294842833
H   H127      1.0  0.77221  0.69387  0.41554  1.0000 0.1398617997
H   H128      1.0  0.70231  0.70554  0.37104  1.0000 0.1398617997
H   H129      1.0  0.10180  0.74332  0.57226  1.0000 0.279502
H   H130      1.0  0.13500  0.68630  0.60346  1.0000 0.2616696053
H   H131      1.0  0.28069  0.64414  0.56167  1.0000 0.1294842833
H   H132      1.0  0.16459  0.65030  0.53237  1.0000 0.1294842833
H   H133      1.0  0.26402  0.71207  0.52978  1.0000 0.1398617997
H   H134      1.0  0.31209  0.74325  0.61724  1.0000 0.1294842833
H   H135      1.0  0.27221  0.80613  0.58446  1.0000 0.1398617997
H   H136      1.0  0.20231  0.79446  0.62896  1.0000 0.1398617997
H   H137      1.0  0.60180  0.75668  0.07226  1.0000 0.279502
H   H138      1.0  0.63500  0.81370  0.10346  1.0000 0.2616696053
H   H139      1.0  0.78069  0.85586  0.06167  1.0000 0.1294842833
H   H140      1.0  0.66459  0.84970  0.03237  1.0000 0.1294842833
H   H141      1.0  0.76402  0.78793  0.02978  1.0000 0.1398617997
H   H142      1.0  0.81209  0.75675  0.11724  1.0000 0.1294842833
H   H143      1.0  0.77221  0.69387  0.08446  1.0000 0.1398617997
H   H144      1.0  0.70231  0.70554  0.12896  1.0000 0.1398617997
H   H145      1.0  0.10180  0.74332  0.92774  1.0000 0.279502
H   H146      1.0  0.13500  0.68630  0.89654  1.0000 0.2616696053
H   H147      1.0  0.28069  0.64414  0.93833  1.0000 0.1210929914
H   H148      1.0  0.16459  0.65030  0.96763  1.0000 0.1294842833
H   H149      1.0  0.26402  0.71207  0.97022  1.0000 0.1398617997
H   H150      1.0  0.31209  0.74325  0.88276  1.0000 0.1294842833
H   H151      1.0  0.27221  0.80613  0.91554  1.0000 0.1398617997
H   H152      1.0  0.20231  0.79446  0.87104  1.0000 0.1398617997
H   H153      1.0  0.39820  0.24332  0.57226  1.0000 0.279502
H   H154      1.0  0.36500  0.18630  0.60346  1.0000 0.2616696053
H   H155      1.0  0.21931  0.14414  0.56167  1.0000 0.1210929914
H   H156      1.0  0.33541  0.15030  0.53237  1.0000 0.1294842833
H   H157      1.0  0.23598  0.21207  0.52978  1.0000 0.1398617997
H   H158      1.0  0.18791  0.24325  0.61724  1.0000 0.1294842833
H   H159      1.0  0.22779  0.30613  0.58446  1.0000 0.1398617997
H   H160      1.0  0.29769  0.29446  0.62896  1.0000 0.1398617997
H   H161      1.0  0.89820  0.25668  0.42774  1.0000 0.279502
H   H162      1.0  0.86500  0.31370  0.39654  1.0000 0.2616696053
H   H163      1.0  0.71931  0.35586  0.43833  1.0000 0.1210929914
H   H164      1.0  0.83541  0.34970  0.46763  1.0000 0.1294842833
H   H165      1.0  0.73598  0.28793  0.47022  1.0000 0.1398617997
H   H166      1.0  0.68791  0.25675  0.38276  1.0000 0.1294842833
H   H167      1.0  0.72779  0.19387  0.41554  1.0000 0.1398617997
H   H168      1.0  0.79769  0.20554  0.37104  1.0000 0.1398617997
C   C1        1.0  0.61490  0.47850  0.50908  1.0000 -0.1093500742
C   C2        1.0  0.55330  0.06470  0.51208  1.0000 -0.0180784002
C   C3        1.0  0.48760  0.02590  0.54166  1.0000 -0.1093500742
C   C4        1.0  0.54590  0.35430  0.53180  1.0000 0.5598795556
C   C5        1.0  0.56610  0.03900  0.47077  1.0000 -0.1093500742
C   C6        1.0  0.60740  0.26910  0.70467  1.0000 -0.0180784002
C   C7        1.0  0.40760  0.45130  0.50688  1.0000 -0.1093500742
C   C8        1.0  0.50400  0.27860  0.72730  1.0000 -0.1093500742
C   C9        1.0  0.61150  0.13640  0.52498  1.0000 0.5398386859
C   C10       1.0  0.60630  0.26910  0.65649  1.0000 0.5539925837
C   C11       1.0  0.92740  0.29890  0.56660  1.0000 -0.3163497418
C   C12       1.0  0.52240  0.42890  0.51579  1.0000 -0.0374260682
C   C13       1.0  0.90740  0.17070  0.58450  1.0000 -0.2990474708
C   C14       1.0  0.71010  0.25780  0.72783  1.0000 -0.0990561328
C   C15       1.0  0.38510  0.52150  0.00908  1.0000 -0.1093500742
C   C16       1.0  0.44670  0.93530  0.01208  1.0000 -0.0180784002
C   C17       1.0  0.51240  0.97410  0.04166  1.0000 -0.1093500742
C   C18       1.0  0.45410  0.64570  0.03180  1.0000 0.5598795556
C   C19       1.0  0.43390  0.96100  0.97077  1.0000 -0.1093500742
C   C20       1.0  0.39260  0.73090  0.20467  1.0000 -0.0180784002
C   C21       1.0  0.59240  0.54870  0.00688  1.0000 -0.1093500742
C   C22       1.0  0.49600  0.72140  0.22730  1.0000 -0.1093500742
C   C23       1.0  0.38850  0.86360  0.02498  1.0000 0.5398386859
C   C24       1.0  0.39370  0.73090  0.15649  1.0000 0.5539925837
C   C25       1.0  0.07260  0.70110  0.06660  1.0000 -0.3163497418
C   C26       1.0  0.47760  0.57110  0.01579  1.0000 -0.0374260682
C   C27       1.0  0.09260  0.82930  0.08450  1.0000 -0.2990474708
C   C28       1.0  0.28990  0.74220  0.22783  1.0000 -0.0990561328
C   C29       1.0  0.38510  0.52150  0.49092  1.0000 -0.1093500742
C   C30       1.0  0.44670  0.93530  0.48792  1.0000 -0.0180784002
C   C31       1.0  0.51240  0.97410  0.45834  1.0000 -0.1093500742
C   C32       1.0  0.45410  0.64570  0.46820  1.0000 0.5598795556
C   C33       1.0  0.43390  0.96100  0.52923  1.0000 -0.1093500742
C   C34       1.0  0.39260  0.73090  0.29533  1.0000 -0.0180784002
C   C35       1.0  0.59240  0.54870  0.49312  1.0000 -0.1093500742
C   C36       1.0  0.49600  0.72140  0.27270  1.0000 -0.1093500742
C   C37       1.0  0.38850  0.86360  0.47502  1.0000 0.5398386859
C   C38       1.0  0.39370  0.73090  0.34351  1.0000 0.5539925837
C   C39       1.0  0.07260  0.70110  0.43340  1.0000 -0.3163497418
C   C40       1.0  0.47760  0.57110  0.48421  1.0000 -0.0374260682
C   C41       1.0  0.09260  0.82930  0.41550  1.0000 -0.2990474708
C   C42       1.0  0.28990  0.74220  0.27217  1.0000 -0.0990561328
C   C43       1.0  0.61490  0.47850  0.99092  1.0000 -0.1093500742
C   C44       1.0  0.55330  0.06470  0.98792  1.0000 -0.0180784002
C   C45       1.0  0.48760  0.02590  0.95834  1.0000 -0.1093500742
C   C46       1.0  0.54590  0.35430  0.96820  1.0000 0.5598795556
C   C47       1.0  0.56610  0.03900  0.02923  1.0000 -0.1093500742
C   C48       1.0  0.60740  0.26910  0.79533  1.0000 -0.0180784002
C   C49       1.0  0.40760  0.45130  0.99312  1.0000 -0.1093500742
C   C50       1.0  0.50400  0.27860  0.77270  1.0000 -0.1093500742
C   C51       1.0  0.61150  0.13640  0.97502  1.0000 0.5398386859
C   C52       1.0  0.60630  0.26910  0.84351  1.0000 0.5539925837
C   C53       1.0  0.92740  0.29890  0.93340  1.0000 -0.3163497418
C   C54       1.0  0.52240  0.42890  0.98421  1.0000 -0.0374260682
C   C55       1.0  0.90740  0.17070  0.91550  1.0000 -0.2990474708
C   C56       1.0  0.71010  0.25780  0.77217  1.0000 -0.0990561328
C   C57       1.0  0.11490  0.02150  0.49092  1.0000 -0.1093500742
C   C58       1.0  0.05330  0.43530  0.48792  1.0000 -0.0180784002
C   C59       1.0  0.98760  0.47410  0.45834  1.0000 -0.1093500742
C   C60       1.0  0.04590  0.14570  0.46820  1.0000 0.5598795556
C   C61       1.0  0.06610  0.46100  0.52923  1.0000 -0.1093500742
C   C62       1.0  0.10740  0.23090  0.29533  1.0000 -0.0180784002
C   C63       1.0  0.90760  0.04870  0.49312  1.0000 -0.1093500742
C   C64       1.0  0.00400  0.22140  0.27270  1.0000 -0.1093500742
C   C65       1.0  0.11150  0.36360  0.47502  1.0000 0.5398386859
C   C66       1.0  0.10630  0.23090  0.34351  1.0000 0.5539925837
C   C67       1.0  0.42740  0.20110  0.43340  1.0000 -0.3163497418
C   C68       1.0  0.02240  0.07110  0.48421  1.0000 -0.0374260682
C   C69       1.0  0.40740  0.32930  0.41550  1.0000 -0.2990474708
C   C70       1.0  0.21010  0.24220  0.27217  1.0000 -0.0990561328
C   C71       1.0  0.88510  0.97850  0.99092  1.0000 -0.1093500742
C   C72       1.0  0.94670  0.56470  0.98792  1.0000 -0.0180784002
C   C73       1.0  0.01240  0.52590  0.95834  1.0000 -0.1093500742
C   C74       1.0  0.95410  0.85430  0.96820  1.0000 0.5598795556
C   C75       1.0  0.93390  0.53900  0.02923  1.0000 -0.1093500742
C   C76       1.0  0.89260  0.76910  0.79533  1.0000 -0.0180784002
C   C77       1.0  0.09240  0.95130  0.99312  1.0000 -0.1093500742
C   C78       1.0  0.99600  0.77860  0.77270  1.0000 -0.1093500742
C   C79       1.0  0.88850  0.63640  0.97502  1.0000 0.5398386859
C   C80       1.0  0.89370  0.76910  0.84351  1.0000 0.5539925837
C   C81       1.0  0.57260  0.79890  0.93340  1.0000 -0.3163497418
C   C82       1.0  0.97760  0.92890  0.98421  1.0000 -0.0374260682
C   C83       1.0  0.59260  0.67070  0.91550  1.0000 -0.2990474708
C   C84       1.0  0.78990  0.75780  0.77217  1.0000 -0.0990561328
C   C85       1.0  0.88510  0.97850  0.50908  1.0000 -0.1093500742
C   C86       1.0  0.94670  0.56470  0.51208  1.0000 -0.0180784002
C   C87       1.0  0.01240  0.52590  0.54166  1.0000 -0.1093500742
C   C88       1.0  0.95410  0.85430  0.53180  1.0000 0.5598795556
C   C89       1.0  0.93390  0.53900  0.47077  1.0000 -0.1093500742
C   C90       1.0  0.89260  0.76910  0.70467  1.0000 -0.0180784002
C   C91       1.0  0.09240  0.95130  0.50688  1.0000 -0.1093500742
C   C92       1.0  0.99600  0.77860  0.72730  1.0000 -0.1093500742
C   C93       1.0  0.88850  0.63640  0.52498  1.0000 0.5398386859
C   C94       1.0  0.89370  0.76910  0.65649  1.0000 0.5539925837
C   C95       1.0  0.57260  0.79890  0.56660  1.0000 -0.3163497418
C   C96       1.0  0.97760  0.92890  0.51579  1.0000 -0.0374260682
C   C97       1.0  0.59260  0.67070  0.58450  1.0000 -0.2990474708
C   C98       1.0  0.78990  0.75780  0.72783  1.0000 -0.0990561328
C   C99       1.0  0.11490  0.02150  0.00908  1.0000 -0.1093500742
C   C100      1.0  0.05330  0.43530  0.01208  1.0000 -0.0180784002
C   C101      1.0  0.98760  0.47410  0.04166  1.0000 -0.1093500742
C   C102      1.0  0.04590  0.14570  0.03180  1.0000 0.5598795556
C   C103      1.0  0.06610  0.46100  0.97077  1.0000 -0.1093500742
C   C104      1.0  0.10740  0.23090  0.20467  1.0000 -0.0180784002
C   C105      1.0  0.90760  0.04870  0.00688  1.0000 -0.1093500742
C   C106      1.0  0.00400  0.22140  0.22730  1.0000 -0.1093500742
C   C107      1.0  0.11150  0.36360  0.02498  1.0000 0.5398386859
C   C108      1.0  0.10630  0.23090  0.15649  1.0000 0.5539925837
C   C109      1.0  0.42740  0.20110  0.06660  1.0000 -0.3163497418
C   C110      1.0  0.02240  0.07110  0.01579  1.0000 -0.0374260682
C   C111      1.0  0.40740  0.32930  0.08450  1.0000 -0.2990474708
C   C112      1.0  0.21010  0.24220  0.22783  1.0000 -0.0990561328
C   C113      1.0  0.27680  0.17790  0.95101  1.0000 -0.3122956611
C   C114      1.0  0.25560  0.26990  0.89460  1.0000 -0.2990474708
C   C115      1.0  0.77680  0.32210  0.04899  1.0000 -0.3122956611
C   C116      1.0  0.75560  0.23010  0.10540  1.0000 -0.2990474708
C   C117      1.0  0.72320  0.82210  0.45101  1.0000 -0.3122956611
C   C118      1.0  0.74440  0.73010  0.39460  1.0000 -0.2990474708
C   C119      1.0  0.22320  0.67790  0.54899  1.0000 -0.3122956611
C   C120      1.0  0.24440  0.76990  0.60540  1.0000 -0.2990474708
C   C121      1.0  0.72320  0.82210  0.04899  1.0000 -0.3122956611
C   C122      1.0  0.74440  0.73010  0.10540  1.0000 -0.2990474708
C   C123      1.0  0.22320  0.67790  0.95101  1.0000 -0.3122956611
C   C124      1.0  0.24440  0.76990  0.89460  1.0000 -0.2990474708
C   C125      1.0  0.27680  0.17790  0.54899  1.0000 -0.3122956611
C   C126      1.0  0.25560  0.26990  0.60540  1.0000 -0.2990474708
C   C127      1.0  0.77680  0.32210  0.45101  1.0000 -0.3122956611
C   C128      1.0  0.75560  0.23010  0.39460  1.0000 -0.2990474708
N   N1        1.0  0.85680  0.23090  0.55930  1.0000 -0.2334582813
N   N2        1.0  0.14320  0.76910  0.05930  1.0000 -0.2334582813
N   N3        1.0  0.14320  0.76910  0.44070  1.0000 -0.2334582813
N   N4        1.0  0.85680  0.23090  0.94070  1.0000 -0.2334582813
N   N5        1.0  0.35680  0.26910  0.44070  1.0000 -0.2334582813
N   N6        1.0  0.64320  0.73090  0.94070  1.0000 -0.2334582813
N   N7        1.0  0.64320  0.73090  0.55930  1.0000 -0.2334582813
N   N8        1.0  0.35680  0.26910  0.05930  1.0000 -0.2334582813
N   N9        1.0  0.33610  0.21830  0.91639  1.0000 -0.0917765579
N   N10       1.0  0.83610  0.28170  0.08361  1.0000 -0.0917765579
N   N11       1.0  0.66390  0.78170  0.41639  1.0000 -0.0917765579
N   N12       1.0  0.16390  0.71830  0.58361  1.0000 -0.0917765579
N   N13       1.0  0.66390  0.78170  0.08361  1.0000 -0.0917765579
N   N14       1.0  0.16390  0.71830  0.91639  1.0000 -0.0917765579
N   N15       1.0  0.33610  0.21830  0.58361  1.0000 -0.0917765579
N   N16       1.0  0.83610  0.28170  0.41639  1.0000 -0.0917765579
O   O1        1.0  0.46570  0.30784  0.52976  1.0000 -0.5407255746
O   O2        1.0  0.67410  0.16874  0.49792  1.0000 -0.5500096885
O   O3        1.0  0.59200  0.15822  0.56310  1.0000 -0.5500096885
O   O4        1.0  0.64850  0.34273  0.54785  1.0000 -0.5500096885
O   O5        1.0  0.51320  0.28030  0.63677  1.0000 -0.5612583092
O   O6        1.0  0.70430  0.25740  0.63779  1.0000 -0.527121403
O   O7        1.0  0.53430  0.69216  0.02976  1.0000 -0.5407255746
O   O8        1.0  0.32590  0.83126  0.99792  1.0000 -0.5500096885
O   O9        1.0  0.40800  0.84178  0.06310  1.0000 -0.5500096885
O   O10       1.0  0.35150  0.65727  0.04785  1.0000 -0.5500096885
O   O11       1.0  0.48680  0.71970  0.13677  1.0000 -0.5612583092
O   O12       1.0  0.29570  0.74260  0.13779  1.0000 -0.527121403
O   O13       1.0  0.53430  0.69216  0.47024  1.0000 -0.5407255746
O   O14       1.0  0.32590  0.83126  0.50208  1.0000 -0.5500096885
O   O15       1.0  0.40800  0.84178  0.43690  1.0000 -0.5500096885
O   O16       1.0  0.35150  0.65727  0.45215  1.0000 -0.5500096885
O   O17       1.0  0.48680  0.71970  0.36323  1.0000 -0.5612583092
O   O18       1.0  0.29570  0.74260  0.36221  1.0000 -0.527121403
O   O19       1.0  0.46570  0.30784  0.97024  1.0000 -0.5407255746
O   O20       1.0  0.67410  0.16874  0.00208  1.0000 -0.5500096885
O   O21       1.0  0.59200  0.15822  0.93690  1.0000 -0.5500096885
O   O22       1.0  0.64850  0.34273  0.95215  1.0000 -0.5500096885
O   O23       1.0  0.51320  0.28030  0.86323  1.0000 -0.5612583092
O   O24       1.0  0.70430  0.25740  0.86221  1.0000 -0.527121403
O   O25       1.0  0.96570  0.19216  0.47024  1.0000 -0.5407255746
O   O26       1.0  0.17410  0.33126  0.50208  1.0000 -0.5500096885
O   O27       1.0  0.09200  0.34178  0.43690  1.0000 -0.5500096885
O   O28       1.0  0.14850  0.15727  0.45215  1.0000 -0.5500096885
O   O29       1.0  0.01320  0.21970  0.36323  1.0000 -0.5612583092
O   O30       1.0  0.20430  0.24260  0.36221  1.0000 -0.527121403
O   O31       1.0  0.03430  0.80784  0.97024  1.0000 -0.5407255746
O   O32       1.0  0.82590  0.66874  0.00208  1.0000 -0.5500096885
O   O33       1.0  0.90800  0.65822  0.93690  1.0000 -0.5500096885
O   O34       1.0  0.85150  0.84273  0.95215  1.0000 -0.5500096885
O   O35       1.0  0.98680  0.78030  0.86323  1.0000 -0.5612583092
O   O36       1.0  0.79570  0.75740  0.86221  1.0000 -0.527121403
O   O37       1.0  0.03430  0.80784  0.52976  1.0000 -0.5407255746
O   O38       1.0  0.82590  0.66874  0.49792  1.0000 -0.5500096885
O   O39       1.0  0.90800  0.65822  0.56310  1.0000 -0.5500096885
O   O40       1.0  0.85150  0.84273  0.54785  1.0000 -0.5500096885
O   O41       1.0  0.98680  0.78030  0.63677  1.0000 -0.5612583092
O   O42       1.0  0.79570  0.75740  0.63779  1.0000 -0.527121403
O   O43       1.0  0.96570  0.19216  0.02976  1.0000 -0.5407255746
O   O44       1.0  0.17410  0.33126  0.99792  1.0000 -0.5500096885
O   O45       1.0  0.09200  0.34178  0.06310  1.0000 -0.5500096885
O   O46       1.0  0.14850  0.15727  0.04785  1.0000 -0.5500096885
O   O47       1.0  0.01320  0.21970  0.13677  1.0000 -0.5612583092
O   O48       1.0  0.20430  0.24260  0.13779  1.0000 -0.527121403
