# DDEC6 charges by PACMAN v1.1 (https://github.com/mtap-research/PACMAN-charge/)
data_d3qi00480e3_2_ASR_pacman
_symmetry_space_group_name_H-M   'P 1'
_cell_length_a   23.36900000
_cell_length_b   44.49000000
_cell_length_c   17.20400000
_cell_angle_alpha   90.00000000
_cell_angle_beta   90.00000000
_cell_angle_gamma   90.00000000
_symmetry_Int_Tables_number   1
_chemical_formula_structural   ZnH14C23NO4
_chemical_formula_sum   'Zn8 H112 C184 N8 O32'
_cell_volume   17886.77187924
_cell_formula_units_Z   8
loop_
 _symmetry_equiv_pos_site_id
 _symmetry_equiv_pos_as_xyz
  1  'x, y, z'
loop_
 _atom_site_type_symbol
 _atom_site_label
 _atom_site_symmetry_multiplicity
 _atom_site_fract_x
 _atom_site_fract_y
 _atom_site_fract_z
 _atom_site_occupancy
 _atom_site_charge
Zn  Zn1  1  0.50000000  0.47580000  0.44131000  1.0 0.9503202517
Zn  Zn2  1  0.50000000  0.02420000  0.44131000  1.0 0.9503202517
Zn  Zn3  1  0.50000000  0.97580000  0.55869000  1.0 0.9503202517
Zn  Zn4  1  0.50000000  0.52420000  0.55869000  1.0 0.9503202517
Zn  Zn5  1  0.00000000  0.97580000  0.94131000  1.0 0.9503202517
Zn  Zn6  1  0.00000000  0.52420000  0.94131000  1.0 0.9503202517
Zn  Zn7  1  0.00000000  0.47580000  0.05869000  1.0 0.9503202517
Zn  Zn8  1  0.00000000  0.02420000  0.05869000  1.0 0.9503202517
H  H1  1  0.63345000  0.57781000  0.45331000  1.0 0.1287993695
H  H2  1  0.36655000  0.92219000  0.45331000  1.0 0.1287993695
H  H3  1  0.36655000  0.07781000  0.54669000  1.0 0.1287993695
H  H4  1  0.63345000  0.42219000  0.54669000  1.0 0.1287993695
H  H5  1  0.13345000  0.07781000  0.95331000  1.0 0.1287993695
H  H6  1  0.86655000  0.42219000  0.95331000  1.0 0.1287993695
H  H7  1  0.86655000  0.57781000  0.04669000  1.0 0.1287993695
H  H8  1  0.13345000  0.92219000  0.04669000  1.0 0.1287993695
H  H9  1  0.36655000  0.42219000  0.54669000  1.0 0.1287993695
H  H10  1  0.63345000  0.07781000  0.54669000  1.0 0.1287993695
H  H11  1  0.63345000  0.92219000  0.45331000  1.0 0.1287993695
H  H12  1  0.36655000  0.57781000  0.45331000  1.0 0.1287993695
H  H13  1  0.86655000  0.92219000  0.04669000  1.0 0.1287993695
H  H14  1  0.13345000  0.57781000  0.04669000  1.0 0.1287993695
H  H15  1  0.13345000  0.42219000  0.95331000  1.0 0.1287993695
H  H16  1  0.86655000  0.07781000  0.95331000  1.0 0.1287993695
H  H17  1  0.70511000  0.60256000  0.38206000  1.0 0.1287993695
H  H18  1  0.29489000  0.89744000  0.38206000  1.0 0.1287993695
H  H19  1  0.29489000  0.10256000  0.61794000  1.0 0.1287993695
H  H20  1  0.70511000  0.39744000  0.61794000  1.0 0.1287993695
H  H21  1  0.20511000  0.10256000  0.88206000  1.0 0.1287993695
H  H22  1  0.79489000  0.39744000  0.88206000  1.0 0.1287993695
H  H23  1  0.79489000  0.60256000  0.11794000  1.0 0.1287993695
H  H24  1  0.20511000  0.89744000  0.11794000  1.0 0.1287993695
H  H25  1  0.29489000  0.39744000  0.61794000  1.0 0.1287993695
H  H26  1  0.70511000  0.10256000  0.61794000  1.0 0.1287993695
H  H27  1  0.70511000  0.89744000  0.38206000  1.0 0.1287993695
H  H28  1  0.29489000  0.60256000  0.38206000  1.0 0.1287993695
H  H29  1  0.79489000  0.89744000  0.11794000  1.0 0.1287993695
H  H30  1  0.20511000  0.60256000  0.11794000  1.0 0.1287993695
H  H31  1  0.20511000  0.39744000  0.88206000  1.0 0.1287993695
H  H32  1  0.79489000  0.10256000  0.88206000  1.0 0.1287993695
H  H33  1  0.69625000  0.53941000  0.21347000  1.0 0.1287993695
H  H34  1  0.30375000  0.96059000  0.21347000  1.0 0.1287993695
H  H35  1  0.30375000  0.03941000  0.78653000  1.0 0.1287993695
H  H36  1  0.69625000  0.46059000  0.78653000  1.0 0.1287993695
H  H37  1  0.19625000  0.03941000  0.71347000  1.0 0.1287993695
H  H38  1  0.80375000  0.46059000  0.71347000  1.0 0.1287993695
H  H39  1  0.80375000  0.53941000  0.28653000  1.0 0.1287993695
H  H40  1  0.19625000  0.96059000  0.28653000  1.0 0.1287993695
H  H41  1  0.30375000  0.46059000  0.78653000  1.0 0.1287993695
H  H42  1  0.69625000  0.03941000  0.78653000  1.0 0.1287993695
H  H43  1  0.69625000  0.96059000  0.21347000  1.0 0.1287993695
H  H44  1  0.30375000  0.53941000  0.21347000  1.0 0.1287993695
H  H45  1  0.80375000  0.96059000  0.28653000  1.0 0.1287993695
H  H46  1  0.19625000  0.53941000  0.28653000  1.0 0.1287993695
H  H47  1  0.19625000  0.46059000  0.71347000  1.0 0.1287993695
H  H48  1  0.80375000  0.03941000  0.71347000  1.0 0.1287993695
H  H49  1  0.62774000  0.51433000  0.28487000  1.0 0.1287993695
H  H50  1  0.37226000  0.98567000  0.28487000  1.0 0.1287993695
H  H51  1  0.37226000  0.01433000  0.71513000  1.0 0.1287993695
H  H52  1  0.62774000  0.48567000  0.71513000  1.0 0.1287993695
H  H53  1  0.12774000  0.01433000  0.78487000  1.0 0.1287993695
H  H54  1  0.87226000  0.48567000  0.78487000  1.0 0.1287993695
H  H55  1  0.87226000  0.51433000  0.21513000  1.0 0.1287993695
H  H56  1  0.12774000  0.98567000  0.21513000  1.0 0.1287993695
H  H57  1  0.37226000  0.48567000  0.71513000  1.0 0.1287993695
H  H58  1  0.62774000  0.01433000  0.71513000  1.0 0.1287993695
H  H59  1  0.62774000  0.98567000  0.28487000  1.0 0.1287993695
H  H60  1  0.37226000  0.51433000  0.28487000  1.0 0.1287993695
H  H61  1  0.87226000  0.98567000  0.21513000  1.0 0.1287993695
H  H62  1  0.12774000  0.51433000  0.21513000  1.0 0.1287993695
H  H63  1  0.12774000  0.48567000  0.78487000  1.0 0.1287993695
H  H64  1  0.87226000  0.01433000  0.78487000  1.0 0.1287993695
H  H65  1  0.83464000  0.62732000  0.27199000  1.0 0.1287993695
H  H66  1  0.16536000  0.87268000  0.27199000  1.0 0.1287993695
H  H67  1  0.16536000  0.12732000  0.72801000  1.0 0.135888793
H  H68  1  0.83464000  0.37268000  0.72801000  1.0 0.135888793
H  H69  1  0.33464000  0.12732000  0.77199000  1.0 0.135888793
H  H70  1  0.66536000  0.37268000  0.77199000  1.0 0.1287993695
H  H71  1  0.66536000  0.62732000  0.22801000  1.0 0.1287993695
H  H72  1  0.33464000  0.87268000  0.22801000  1.0 0.1287993695
H  H73  1  0.16536000  0.37268000  0.72801000  1.0 0.135888793
H  H74  1  0.83464000  0.12732000  0.72801000  1.0 0.135888793
H  H75  1  0.83464000  0.87268000  0.27199000  1.0 0.1287993695
H  H76  1  0.16536000  0.62732000  0.27199000  1.0 0.1287993695
H  H77  1  0.66536000  0.87268000  0.22801000  1.0 0.1287993695
H  H78  1  0.33464000  0.62732000  0.22801000  1.0 0.1287993695
H  H79  1  0.33464000  0.37268000  0.77199000  1.0 0.135888793
H  H80  1  0.66536000  0.12732000  0.77199000  1.0 0.1287993695
H  H81  1  0.83435000  0.67904000  0.26774000  1.0 0.1102867838
H  H82  1  0.16565000  0.82096000  0.26774000  1.0 0.1102867838
H  H83  1  0.16565000  0.17904000  0.73226000  1.0 0.1102867838
H  H84  1  0.83435000  0.32096000  0.73226000  1.0 0.1102867838
H  H85  1  0.33435000  0.17904000  0.76774000  1.0 0.1102867838
H  H86  1  0.66565000  0.32096000  0.76774000  1.0 0.1102867838
H  H87  1  0.66565000  0.67904000  0.23226000  1.0 0.1102867838
H  H88  1  0.33435000  0.82096000  0.23226000  1.0 0.1102867838
H  H89  1  0.16565000  0.32096000  0.73226000  1.0 0.1102867838
H  H90  1  0.83435000  0.17904000  0.73226000  1.0 0.1102867838
H  H91  1  0.83435000  0.82096000  0.26774000  1.0 0.1102867838
H  H92  1  0.16565000  0.67904000  0.26774000  1.0 0.1102867838
H  H93  1  0.66565000  0.82096000  0.23226000  1.0 0.1102867838
H  H94  1  0.33435000  0.67904000  0.23226000  1.0 0.1102867838
H  H95  1  0.33435000  0.32096000  0.76774000  1.0 0.1102867838
H  H96  1  0.66565000  0.17904000  0.76774000  1.0 0.1102867838
H  H97  1  0.81579000  0.72340000  0.32223000  0.5 0.0999268526
H  H98  1  0.18421000  0.77660000  0.32223000  0.5 0.0999268526
H  H99  1  0.18421000  0.22340000  0.67776000  0.5 0.0999268526
H  H100  1  0.81579000  0.27660000  0.67776000  0.5 0.0999268526
H  H101  1  0.31579000  0.22340000  0.82224000  0.5 0.0999268526
H  H102  1  0.68421000  0.27660000  0.82224000  0.5 0.0999268526
H  H103  1  0.68421000  0.72340000  0.17777000  0.5 0.0999268526
H  H104  1  0.31579000  0.77660000  0.17777000  0.5 0.0999268526
H  H105  1  0.18421000  0.27660000  0.67776000  0.5 0.0999268526
H  H106  1  0.81579000  0.22340000  0.67776000  0.5 0.0999268526
H  H107  1  0.81579000  0.77660000  0.32223000  0.5 0.0999268526
H  H108  1  0.18421000  0.72340000  0.32223000  0.5 0.0999268526
H  H109  1  0.68421000  0.77660000  0.17777000  0.5 0.0999268526
H  H110  1  0.31579000  0.72340000  0.17777000  0.5 0.0999268526
H  H111  1  0.31579000  0.27660000  0.82224000  0.5 0.0999268526
H  H112  1  0.68421000  0.22340000  0.82224000  0.5 0.0999268526
H  H113  1  0.82553000  0.72473000  0.19992000  0.5 0.0999268526
H  H114  1  0.17447000  0.77527000  0.19992000  0.5 0.0999268526
H  H115  1  0.17447000  0.22473000  0.80008000  0.5 0.0999268526
H  H116  1  0.82553000  0.27527000  0.80008000  0.5 0.0999268526
H  H117  1  0.32553000  0.22473000  0.69992000  0.5 0.0999268526
H  H118  1  0.67447000  0.27527000  0.69992000  0.5 0.0999268526
H  H119  1  0.67447000  0.72473000  0.30008000  0.5 0.0999268526
H  H120  1  0.32553000  0.77527000  0.30008000  0.5 0.0999268526
H  H121  1  0.17447000  0.27527000  0.80008000  0.5 0.0999268526
H  H122  1  0.82553000  0.22473000  0.80008000  0.5 0.0999268526
H  H123  1  0.82553000  0.77527000  0.19992000  0.5 0.0999268526
H  H124  1  0.17447000  0.72473000  0.19992000  0.5 0.0999268526
H  H125  1  0.67447000  0.77527000  0.30008000  0.5 0.0999268526
H  H126  1  0.32553000  0.72473000  0.30008000  0.5 0.0999268526
H  H127  1  0.32553000  0.27527000  0.69992000  0.5 0.0999268526
H  H128  1  0.67447000  0.22473000  0.69992000  0.5 0.0999268526
C  C1  1  0.57813000  0.52706000  0.42120000  1.0 0.5963883181
C  C2  1  0.42187000  0.97294000  0.42120000  1.0 0.5963883181
C  C3  1  0.42187000  0.02706000  0.57880000  1.0 0.5963883181
C  C4  1  0.57813000  0.47294000  0.57880000  1.0 0.5963883181
C  C5  1  0.07813000  0.02706000  0.92120000  1.0 0.5963883181
C  C6  1  0.92187000  0.47294000  0.92120000  1.0 0.5963883181
C  C7  1  0.92187000  0.52706000  0.07880000  1.0 0.5963883181
C  C8  1  0.07813000  0.97294000  0.07880000  1.0 0.5963883181
C  C9  1  0.42187000  0.47294000  0.57880000  1.0 0.5963883181
C  C10  1  0.57813000  0.02706000  0.57880000  1.0 0.5963883181
C  C11  1  0.57813000  0.97294000  0.42120000  1.0 0.5963883181
C  C12  1  0.42187000  0.52706000  0.42120000  1.0 0.5963883181
C  C13  1  0.92187000  0.97294000  0.07880000  1.0 0.5963883181
C  C14  1  0.07813000  0.52706000  0.07880000  1.0 0.5963883181
C  C15  1  0.07813000  0.47294000  0.92120000  1.0 0.5963883181
C  C16  1  0.92187000  0.02706000  0.92120000  1.0 0.5963883181
C  C17  1  0.62419000  0.54332000  0.37470000  1.0 -0.0433327028
C  C18  1  0.37581000  0.95668000  0.37470000  1.0 -0.0433327028
C  C19  1  0.37581000  0.04332000  0.62530000  1.0 -0.0433327028
C  C20  1  0.62419000  0.45668000  0.62530000  1.0 -0.0433327028
C  C21  1  0.12419000  0.04332000  0.87470000  1.0 -0.0433327028
C  C22  1  0.87581000  0.45668000  0.87470000  1.0 -0.0433327028
C  C23  1  0.87581000  0.54332000  0.12530000  1.0 -0.0433327028
C  C24  1  0.12419000  0.95668000  0.12530000  1.0 -0.0433327028
C  C25  1  0.37581000  0.45668000  0.62530000  1.0 -0.0433327028
C  C26  1  0.62419000  0.04332000  0.62530000  1.0 -0.0433327028
C  C27  1  0.62419000  0.95668000  0.37470000  1.0 -0.0433327028
C  C28  1  0.37581000  0.54332000  0.37470000  1.0 -0.0433327028
C  C29  1  0.87581000  0.95668000  0.12530000  1.0 -0.0433327028
C  C30  1  0.12419000  0.54332000  0.12530000  1.0 -0.0433327028
C  C31  1  0.12419000  0.45668000  0.87470000  1.0 -0.0433327028
C  C32  1  0.87581000  0.04332000  0.87470000  1.0 -0.0433327028
C  C33  1  0.64654000  0.56998000  0.40510000  1.0 -0.0815574405
C  C34  1  0.35346000  0.93002000  0.40510000  1.0 -0.0815574405
C  C35  1  0.35346000  0.06998000  0.59490000  1.0 -0.0815574405
C  C36  1  0.64654000  0.43002000  0.59490000  1.0 -0.0815574405
C  C37  1  0.14654000  0.06998000  0.90510000  1.0 -0.0815574405
C  C38  1  0.85346000  0.43002000  0.90510000  1.0 -0.0815574405
C  C39  1  0.85346000  0.56998000  0.09490000  1.0 -0.0815574405
C  C40  1  0.14654000  0.93002000  0.09490000  1.0 -0.0815574405
C  C41  1  0.35346000  0.43002000  0.59490000  1.0 -0.0815574405
C  C42  1  0.64654000  0.06998000  0.59490000  1.0 -0.0815574405
C  C43  1  0.64654000  0.93002000  0.40510000  1.0 -0.0815574405
C  C44  1  0.35346000  0.56998000  0.40510000  1.0 -0.0815574405
C  C45  1  0.85346000  0.93002000  0.09490000  1.0 -0.0815574405
C  C46  1  0.14654000  0.56998000  0.09490000  1.0 -0.0815574405
C  C47  1  0.14654000  0.43002000  0.90510000  1.0 -0.0815574405
C  C48  1  0.85346000  0.06998000  0.90510000  1.0 -0.0815574405
C  C49  1  0.68852000  0.58461000  0.36240000  1.0 -0.1918548528
C  C50  1  0.31148000  0.91539000  0.36240000  1.0 -0.1918548528
C  C51  1  0.31148000  0.08461000  0.63760000  1.0 -0.1918548528
C  C52  1  0.68852000  0.41539000  0.63760000  1.0 -0.1918548528
C  C53  1  0.18852000  0.08461000  0.86240000  1.0 -0.1918548528
C  C54  1  0.81148000  0.41539000  0.86240000  1.0 -0.1918548528
C  C55  1  0.81148000  0.58461000  0.13760000  1.0 -0.1918548528
C  C56  1  0.18852000  0.91539000  0.13760000  1.0 -0.1918548528
C  C57  1  0.31148000  0.41539000  0.63760000  1.0 -0.1918548528
C  C58  1  0.68852000  0.08461000  0.63760000  1.0 -0.1918548528
C  C59  1  0.68852000  0.91539000  0.36240000  1.0 -0.1918548528
C  C60  1  0.31148000  0.58461000  0.36240000  1.0 -0.1918548528
C  C61  1  0.81148000  0.91539000  0.13760000  1.0 -0.1918548528
C  C62  1  0.18852000  0.58461000  0.13760000  1.0 -0.1918548528
C  C63  1  0.18852000  0.41539000  0.86240000  1.0 -0.1918548528
C  C64  1  0.81148000  0.08461000  0.86240000  1.0 -0.1918548528
C  C65  1  0.70660000  0.57323000  0.29090000  1.0 0.1706947874
C  C66  1  0.29340000  0.92677000  0.29090000  1.0 0.1706947874
C  C67  1  0.29340000  0.07323000  0.70910000  1.0 0.1706947874
C  C68  1  0.70660000  0.42677000  0.70910000  1.0 0.1706947874
C  C69  1  0.20660000  0.07323000  0.79090000  1.0 0.1706947874
C  C70  1  0.79340000  0.42677000  0.79090000  1.0 0.1706947874
C  C71  1  0.79340000  0.57323000  0.20910000  1.0 0.1706947874
C  C72  1  0.20660000  0.92677000  0.20910000  1.0 0.1706947874
C  C73  1  0.29340000  0.42677000  0.70910000  1.0 0.1706947874
C  C74  1  0.70660000  0.07323000  0.70910000  1.0 0.1706947874
C  C75  1  0.70660000  0.92677000  0.29090000  1.0 0.1706947874
C  C76  1  0.29340000  0.57323000  0.29090000  1.0 0.1706947874
C  C77  1  0.79340000  0.92677000  0.20910000  1.0 0.1706947874
C  C78  1  0.20660000  0.57323000  0.20910000  1.0 0.1706947874
C  C79  1  0.20660000  0.42677000  0.79090000  1.0 0.1706947874
C  C80  1  0.79340000  0.07323000  0.79090000  1.0 0.1706947874
C  C81  1  0.68391000  0.54716000  0.26210000  1.0 -0.1813854428
C  C82  1  0.31609000  0.95284000  0.26210000  1.0 -0.1813854428
C  C83  1  0.31609000  0.04716000  0.73790000  1.0 -0.1813854428
C  C84  1  0.68391000  0.45284000  0.73790000  1.0 -0.1813854428
C  C85  1  0.18391000  0.04716000  0.76210000  1.0 -0.1813854428
C  C86  1  0.81609000  0.45284000  0.76210000  1.0 -0.1813854428
C  C87  1  0.81609000  0.54716000  0.23790000  1.0 -0.1813854428
C  C88  1  0.18391000  0.95284000  0.23790000  1.0 -0.1813854428
C  C89  1  0.31609000  0.45284000  0.73790000  1.0 -0.1813854428
C  C90  1  0.68391000  0.04716000  0.73790000  1.0 -0.1813854428
C  C91  1  0.68391000  0.95284000  0.26210000  1.0 -0.1813854428
C  C92  1  0.31609000  0.54716000  0.26210000  1.0 -0.1813854428
C  C93  1  0.81609000  0.95284000  0.23790000  1.0 -0.1813854428
C  C94  1  0.18391000  0.54716000  0.23790000  1.0 -0.1813854428
C  C95  1  0.18391000  0.45284000  0.76210000  1.0 -0.1813854428
C  C96  1  0.81609000  0.04716000  0.76210000  1.0 -0.1813854428
C  C97  1  0.64332000  0.53254000  0.30450000  1.0 -0.0869465019
C  C98  1  0.35668000  0.96746000  0.30450000  1.0 -0.0869465019
C  C99  1  0.35668000  0.03254000  0.69550000  1.0 -0.0869465019
C  C100  1  0.64332000  0.46746000  0.69550000  1.0 -0.0869465019
C  C101  1  0.14332000  0.03254000  0.80450000  1.0 -0.0869465019
C  C102  1  0.85668000  0.46746000  0.80450000  1.0 -0.0869465019
C  C103  1  0.85668000  0.53254000  0.19550000  1.0 -0.0869465019
C  C104  1  0.14332000  0.96746000  0.19550000  1.0 -0.0869465019
C  C105  1  0.35668000  0.46746000  0.69550000  1.0 -0.0869465019
C  C106  1  0.64332000  0.03254000  0.69550000  1.0 -0.0869465019
C  C107  1  0.64332000  0.96746000  0.30450000  1.0 -0.0869465019
C  C108  1  0.35668000  0.53254000  0.30450000  1.0 -0.0869465019
C  C109  1  0.85668000  0.96746000  0.19550000  1.0 -0.0869465019
C  C110  1  0.14332000  0.53254000  0.19550000  1.0 -0.0869465019
C  C111  1  0.14332000  0.46746000  0.80450000  1.0 -0.0869465019
C  C112  1  0.85668000  0.03254000  0.80450000  1.0 -0.0869465019
C  C113  1  0.75000000  0.62293000  0.25000000  1.0 0.1287993695
C  C114  1  0.25000000  0.87707000  0.25000000  1.0 0.1287993695
C  C115  1  0.25000000  0.12293000  0.75000000  1.0 0.1287993695
C  C116  1  0.75000000  0.37707000  0.75000000  1.0 0.1287993695
C  C117  1  0.25000000  0.37707000  0.75000000  1.0 0.1287993695
C  C118  1  0.75000000  0.12293000  0.75000000  1.0 0.1287993695
C  C119  1  0.75000000  0.87707000  0.25000000  1.0 0.1287993695
C  C120  1  0.25000000  0.62293000  0.25000000  1.0 0.1287993695
C  C121  1  0.80011000  0.63796000  0.26250000  1.0 -0.161638319
C  C122  1  0.19989000  0.86204000  0.26250000  1.0 -0.161638319
C  C123  1  0.19989000  0.13796000  0.73750000  1.0 -0.161638319
C  C124  1  0.80011000  0.36204000  0.73750000  1.0 -0.161638319
C  C125  1  0.30011000  0.13796000  0.76250000  1.0 -0.161638319
C  C126  1  0.69989000  0.36204000  0.76250000  1.0 -0.161638319
C  C127  1  0.69989000  0.63796000  0.23750000  1.0 -0.161638319
C  C128  1  0.30011000  0.86204000  0.23750000  1.0 -0.161638319
C  C129  1  0.19989000  0.36204000  0.73750000  1.0 -0.161638319
C  C130  1  0.80011000  0.13796000  0.73750000  1.0 -0.161638319
C  C131  1  0.80011000  0.86204000  0.26250000  1.0 -0.161638319
C  C132  1  0.19989000  0.63796000  0.26250000  1.0 -0.161638319
C  C133  1  0.69989000  0.86204000  0.23750000  1.0 -0.161638319
C  C134  1  0.30011000  0.63796000  0.23750000  1.0 -0.161638319
C  C135  1  0.30011000  0.36204000  0.76250000  1.0 -0.161638319
C  C136  1  0.69989000  0.13796000  0.76250000  1.0 -0.161638319
C  C137  1  0.79944000  0.66842000  0.26100000  1.0 -0.1475062329
C  C138  1  0.20056000  0.83158000  0.26100000  1.0 -0.1475062329
C  C139  1  0.20056000  0.16842000  0.73900000  1.0 -0.1475062329
C  C140  1  0.79944000  0.33158000  0.73900000  1.0 -0.1475062329
C  C141  1  0.29944000  0.16842000  0.76100000  1.0 -0.1475062329
C  C142  1  0.70056000  0.33158000  0.76100000  1.0 -0.1475062329
C  C143  1  0.70056000  0.66842000  0.23900000  1.0 -0.1475062329
C  C144  1  0.29944000  0.83158000  0.23900000  1.0 -0.1475062329
C  C145  1  0.20056000  0.33158000  0.73900000  1.0 -0.1475062329
C  C146  1  0.79944000  0.16842000  0.73900000  1.0 -0.1475062329
C  C147  1  0.79944000  0.83158000  0.26100000  1.0 -0.1475062329
C  C148  1  0.20056000  0.66842000  0.26100000  1.0 -0.1475062329
C  C149  1  0.70056000  0.83158000  0.23900000  1.0 -0.1475062329
C  C150  1  0.29944000  0.66842000  0.23900000  1.0 -0.1475062329
C  C151  1  0.29944000  0.33158000  0.76100000  1.0 -0.1475062329
C  C152  1  0.70056000  0.16842000  0.76100000  1.0 -0.1475062329
C  C153  1  0.75000000  0.68432000  0.25000000  1.0 0.0083643662
C  C154  1  0.25000000  0.81568000  0.25000000  1.0 0.0083643662
C  C155  1  0.25000000  0.18432000  0.75000000  1.0 0.0083643662
C  C156  1  0.75000000  0.31568000  0.75000000  1.0 0.0083643662
C  C157  1  0.25000000  0.31568000  0.75000000  1.0 0.0083643662
C  C158  1  0.75000000  0.18432000  0.75000000  1.0 0.0083643662
C  C159  1  0.75000000  0.81568000  0.25000000  1.0 0.0083643662
C  C160  1  0.25000000  0.68432000  0.25000000  1.0 0.0083643662
C  C161  1  0.75000000  0.71806000  0.25000000  1.0 -0.0013835703
C  C162  1  0.25000000  0.78194000  0.25000000  1.0 -0.0013835703
C  C163  1  0.25000000  0.21806000  0.75000000  1.0 0.0005457862
C  C164  1  0.75000000  0.28194000  0.75000000  1.0 0.0005457862
C  C165  1  0.25000000  0.28194000  0.75000000  1.0 0.0005457862
C  C166  1  0.75000000  0.21806000  0.75000000  1.0 0.0005457862
C  C167  1  0.75000000  0.78194000  0.25000000  1.0 -0.0013835703
C  C168  1  0.25000000  0.71806000  0.25000000  1.0 -0.0013835703
C  C169  1  0.78820000  0.73380000  0.29200000  0.5 -0.0815574405
C  C170  1  0.21180000  0.76620000  0.29200000  0.5 -0.0815574405
C  C171  1  0.21180000  0.23380000  0.70800000  0.5 -0.0869465019
C  C172  1  0.78820000  0.26620000  0.70800000  0.5 -0.0869465019
C  C173  1  0.28820000  0.23380000  0.79200000  0.5 -0.0869465019
C  C174  1  0.71180000  0.26620000  0.79200000  0.5 -0.0869465019
C  C175  1  0.71180000  0.73380000  0.20800000  0.5 -0.0869465019
C  C176  1  0.28820000  0.76620000  0.20800000  0.5 -0.0869465019
C  C177  1  0.21180000  0.26620000  0.70800000  0.5 -0.0869465019
C  C178  1  0.78820000  0.23380000  0.70800000  0.5 -0.0869465019
C  C179  1  0.78820000  0.76620000  0.29200000  0.5 -0.0815574405
C  C180  1  0.21180000  0.73380000  0.29200000  0.5 -0.0815574405
C  C181  1  0.71180000  0.76620000  0.20800000  0.5 -0.0869465019
C  C182  1  0.28820000  0.73380000  0.20800000  0.5 -0.0869465019
C  C183  1  0.28820000  0.26620000  0.79200000  0.5 -0.0869465019
C  C184  1  0.71180000  0.23380000  0.79200000  0.5 -0.0869465019
C  C185  1  0.79330000  0.73480000  0.22130000  0.5 -0.0869465019
C  C186  1  0.20670000  0.76520000  0.22130000  0.5 -0.0869465019
C  C187  1  0.20670000  0.23480000  0.77870000  0.5 -0.0869465019
C  C188  1  0.79330000  0.26520000  0.77870000  0.5 -0.0869465019
C  C189  1  0.29330000  0.23480000  0.72130000  0.5 -0.0869465019
C  C190  1  0.70670000  0.26520000  0.72130000  0.5 -0.0869465019
C  C191  1  0.70670000  0.73480000  0.27870000  0.5 -0.0815574405
C  C192  1  0.29330000  0.76520000  0.27870000  0.5 -0.0815574405
C  C193  1  0.20670000  0.26520000  0.77870000  0.5 -0.0869465019
C  C194  1  0.79330000  0.23480000  0.77870000  0.5 -0.0869465019
C  C195  1  0.79330000  0.76520000  0.22130000  0.5 -0.0869465019
C  C196  1  0.20670000  0.73480000  0.22130000  0.5 -0.0869465019
C  C197  1  0.70670000  0.76520000  0.27870000  0.5 -0.0815574405
C  C198  1  0.29330000  0.73480000  0.27870000  0.5 -0.0815574405
C  C199  1  0.29330000  0.26520000  0.72130000  0.5 -0.0869465019
C  C200  1  0.70670000  0.23480000  0.72130000  0.5 -0.0869465019
N  N1  1  0.75000000  0.58990000  0.25000000  1.0 -0.1813854428
N  N2  1  0.25000000  0.91010000  0.25000000  1.0 -0.1813854428
N  N3  1  0.25000000  0.08990000  0.75000000  1.0 -0.1813854428
N  N4  1  0.75000000  0.41010000  0.75000000  1.0 -0.1813854428
N  N5  1  0.25000000  0.41010000  0.75000000  1.0 -0.1813854428
N  N6  1  0.75000000  0.08990000  0.75000000  1.0 -0.1813854428
N  N7  1  0.75000000  0.91010000  0.25000000  1.0 -0.1813854428
N  N8  1  0.25000000  0.58990000  0.25000000  1.0 -0.1813854428
O  O1  1  0.56039000  0.50246000  0.39431000  1.0 -0.5411999371
O  O2  1  0.43961000  0.99754000  0.39431000  1.0 -0.5411999371
O  O3  1  0.43961000  0.00246000  0.60569000  1.0 -0.5411999371
O  O4  1  0.56039000  0.49754000  0.60569000  1.0 -0.5411999371
O  O5  1  0.06039000  0.00246000  0.89431000  1.0 -0.5411999371
O  O6  1  0.93961000  0.49754000  0.89431000  1.0 -0.5411999371
O  O7  1  0.93961000  0.50246000  0.10569000  1.0 -0.5411999371
O  O8  1  0.06039000  0.99754000  0.10569000  1.0 -0.5411999371
O  O9  1  0.43961000  0.49754000  0.60569000  1.0 -0.5411999371
O  O10  1  0.56039000  0.00246000  0.60569000  1.0 -0.5411999371
O  O11  1  0.56039000  0.99754000  0.39431000  1.0 -0.5411999371
O  O12  1  0.43961000  0.50246000  0.39431000  1.0 -0.5411999371
O  O13  1  0.93961000  0.99754000  0.10569000  1.0 -0.5411999371
O  O14  1  0.06039000  0.50246000  0.10569000  1.0 -0.5411999371
O  O15  1  0.06039000  0.49754000  0.89431000  1.0 -0.5411999371
O  O16  1  0.93961000  0.00246000  0.89431000  1.0 -0.5411999371
O  O17  1  0.56083000  0.53956000  0.48477000  1.0 -0.5700988989
O  O18  1  0.43917000  0.96044000  0.48477000  1.0 -0.5700988989
O  O19  1  0.43917000  0.03956000  0.51523000  1.0 -0.5700988989
O  O20  1  0.56083000  0.46044000  0.51523000  1.0 -0.5700988989
O  O21  1  0.06083000  0.03956000  0.98477000  1.0 -0.5700988989
O  O22  1  0.93917000  0.46044000  0.98477000  1.0 -0.5700988989
O  O23  1  0.93917000  0.53956000  0.01523000  1.0 -0.5700988989
O  O24  1  0.06083000  0.96044000  0.01523000  1.0 -0.5700988989
O  O25  1  0.43917000  0.46044000  0.51523000  1.0 -0.5700988989
O  O26  1  0.56083000  0.03956000  0.51523000  1.0 -0.5700988989
O  O27  1  0.56083000  0.96044000  0.48477000  1.0 -0.5700988989
O  O28  1  0.43917000  0.53956000  0.48477000  1.0 -0.5700988989
O  O29  1  0.93917000  0.96044000  0.01523000  1.0 -0.5700988989
O  O30  1  0.06083000  0.53956000  0.01523000  1.0 -0.5700988989
O  O31  1  0.06083000  0.46044000  0.98477000  1.0 -0.5700988989
O  O32  1  0.93917000  0.03956000  0.98477000  1.0 -0.5700988989
