# DDEC6 charges by PACMAN v1.1 (https://github.com/mtap-research/PACMAN-charge/)
data_ja0660047si20060818_060256_FSR_pacman
_symmetry_space_group_name_H-M   'P 1'
_cell_length_a   17.35500000
_cell_length_b   17.35500000
_cell_length_c   22.74000000
_cell_angle_alpha   90.00000000
_cell_angle_beta   90.00000000
_cell_angle_gamma   90.00000000
_symmetry_Int_Tables_number   1
_chemical_formula_structural   ZnH12(C11N3)2
_chemical_formula_sum   'Zn8 H96 C176 N48'
_cell_volume   6849.19760850
_cell_formula_units_Z   8
loop_
 _symmetry_equiv_pos_site_id
 _symmetry_equiv_pos_as_xyz
  1  'x, y, z'
loop_
 _atom_site_type_symbol
 _atom_site_label
 _atom_site_symmetry_multiplicity
 _atom_site_fract_x
 _atom_site_fract_y
 _atom_site_fract_z
 _atom_site_occupancy
 _atom_site_charge
Zn  Zn1  1  0.50000000  0.00000000  0.45204000  1.0 0.716748944
Zn  Zn2  1  0.50000000  0.00000000  0.95204000  1.0 0.716748944
Zn  Zn3  1  0.00000000  0.50000000  0.54796000  1.0 0.716748944
Zn  Zn4  1  0.00000000  0.50000000  0.04796000  1.0 0.716748944
Zn  Zn5  1  0.00000000  0.00000000  0.50000000  1.0 0.7576306373
Zn  Zn6  1  0.50000000  0.50000000  0.50000000  1.0 0.7576306373
Zn  Zn7  1  0.00000000  0.00000000  0.00000000  1.0 0.7576306373
Zn  Zn8  1  0.50000000  0.50000000  0.00000000  1.0 0.7576306373
H  H1  1  0.86170000  0.82070000  0.51730000  1.0 0.1166327209
H  H2  1  0.67930000  0.36170000  0.51730000  1.0 0.1166327209
H  H3  1  0.13830000  0.17930000  0.51730000  1.0 0.1166327209
H  H4  1  0.32070000  0.63830000  0.51730000  1.0 0.1166327209
H  H5  1  0.13830000  0.82070000  0.01730000  1.0 0.1166327209
H  H6  1  0.32070000  0.36170000  0.01730000  1.0 0.1166327209
H  H7  1  0.86170000  0.17930000  0.01730000  1.0 0.1166327209
H  H8  1  0.67930000  0.63830000  0.01730000  1.0 0.1166327209
H  H9  1  0.63830000  0.67930000  0.48270000  1.0 0.1166327209
H  H10  1  0.82070000  0.13830000  0.48270000  1.0 0.1166327209
H  H11  1  0.36170000  0.32070000  0.48270000  1.0 0.1166327209
H  H12  1  0.17930000  0.86170000  0.48270000  1.0 0.1166327209
H  H13  1  0.36170000  0.67930000  0.98270000  1.0 0.1166327209
H  H14  1  0.17930000  0.13830000  0.98270000  1.0 0.1166327209
H  H15  1  0.63830000  0.32070000  0.98270000  1.0 0.1166327209
H  H16  1  0.82070000  0.86170000  0.98270000  1.0 0.1166327209
H  H17  1  0.90270000  0.05660000  0.60310000  1.0 0.0992076847
H  H18  1  0.44340000  0.40270000  0.60310000  1.0 0.0992076847
H  H19  1  0.09730000  0.94340000  0.60310000  1.0 0.0992076847
H  H20  1  0.55660000  0.59730000  0.60310000  1.0 0.0992076847
H  H21  1  0.09730000  0.05660000  0.10310000  1.0 0.0992076847
H  H22  1  0.55660000  0.40270000  0.10310000  1.0 0.0992076847
H  H23  1  0.90270000  0.94340000  0.10310000  1.0 0.0992076847
H  H24  1  0.44340000  0.59730000  0.10310000  1.0 0.0992076847
H  H25  1  0.59730000  0.44340000  0.39690000  1.0 0.0992076847
H  H26  1  0.05660000  0.09730000  0.39690000  1.0 0.0992076847
H  H27  1  0.40270000  0.55660000  0.39690000  1.0 0.0992076847
H  H28  1  0.94340000  0.90270000  0.39690000  1.0 0.0992076847
H  H29  1  0.40270000  0.44340000  0.89690000  1.0 0.0992076847
H  H30  1  0.94340000  0.09730000  0.89690000  1.0 0.0992076847
H  H31  1  0.59730000  0.55660000  0.89690000  1.0 0.0992076847
H  H32  1  0.05660000  0.90270000  0.89690000  1.0 0.0992076847
H  H33  1  0.89920000  0.05870000  0.70480000  1.0 0.1277075619
H  H34  1  0.44130000  0.39920000  0.70480000  1.0 0.1277075619
H  H35  1  0.10080000  0.94130000  0.70480000  1.0 0.1277075619
H  H36  1  0.55870000  0.60080000  0.70480000  1.0 0.1277075619
H  H37  1  0.10080000  0.05870000  0.20480000  1.0 0.1277075619
H  H38  1  0.55870000  0.39920000  0.20480000  1.0 0.1277075619
H  H39  1  0.89920000  0.94130000  0.20480000  1.0 0.1277075619
H  H40  1  0.44130000  0.60080000  0.20480000  1.0 0.1277075619
H  H41  1  0.60080000  0.44130000  0.29520000  1.0 0.1277075619
H  H42  1  0.05870000  0.10080000  0.29520000  1.0 0.1277075619
H  H43  1  0.39920000  0.55870000  0.29520000  1.0 0.1277075619
H  H44  1  0.94130000  0.89920000  0.29520000  1.0 0.1277075619
H  H45  1  0.39920000  0.44130000  0.79520000  1.0 0.1277075619
H  H46  1  0.94130000  0.10080000  0.79520000  1.0 0.1277075619
H  H47  1  0.60080000  0.55870000  0.79520000  1.0 0.1277075619
H  H48  1  0.05870000  0.89920000  0.79520000  1.0 0.1277075619
H  H49  1  0.86180000  0.68930000  0.53230000  1.0 0.1083511919
H  H50  1  0.81070000  0.36180000  0.53230000  1.0 0.1083511919
H  H51  1  0.13820000  0.31070000  0.53230000  1.0 0.1083511919
H  H52  1  0.18930000  0.63820000  0.53230000  1.0 0.1083511919
H  H53  1  0.13820000  0.68930000  0.03230000  1.0 0.1083511919
H  H54  1  0.18930000  0.36180000  0.03230000  1.0 0.1083511919
H  H55  1  0.86180000  0.31070000  0.03230000  1.0 0.1083511919
H  H56  1  0.81070000  0.63820000  0.03230000  1.0 0.1083511919
H  H57  1  0.63820000  0.81070000  0.46770000  1.0 0.1083511919
H  H58  1  0.68930000  0.13820000  0.46770000  1.0 0.1083511919
H  H59  1  0.36180000  0.18930000  0.46770000  1.0 0.1083511919
H  H60  1  0.31070000  0.86180000  0.46770000  1.0 0.1083511919
H  H61  1  0.36180000  0.81070000  0.96770000  1.0 0.1083511919
H  H62  1  0.31070000  0.13820000  0.96770000  1.0 0.1083511919
H  H63  1  0.63820000  0.18930000  0.96770000  1.0 0.1083511919
H  H64  1  0.68930000  0.86180000  0.96770000  1.0 0.1083511919
H  H65  1  0.56040000  0.90630000  0.55550000  0.5 0.0992076847
H  H66  1  0.59370000  0.06040000  0.55550000  0.5 0.0992076847
H  H67  1  0.43960000  0.09370000  0.55550000  0.5 0.0992076847
H  H68  1  0.40630000  0.93960000  0.55550000  0.5 0.0992076847
H  H69  1  0.43960000  0.90630000  0.05550000  0.5 0.0992076847
H  H70  1  0.40630000  0.06040000  0.05550000  0.5 0.0992076847
H  H71  1  0.56040000  0.09370000  0.05550000  0.5 0.0992076847
H  H72  1  0.59370000  0.93960000  0.05550000  0.5 0.0992076847
H  H73  1  0.93960000  0.59370000  0.44450000  0.5 0.0992076847
H  H74  1  0.90630000  0.43960000  0.44450000  0.5 0.0992076847
H  H75  1  0.06040000  0.40630000  0.44450000  0.5 0.0992076847
H  H76  1  0.09370000  0.56040000  0.44450000  0.5 0.0992076847
H  H77  1  0.06040000  0.59370000  0.94450000  0.5 0.0992076847
H  H78  1  0.09370000  0.43960000  0.94450000  0.5 0.0992076847
H  H79  1  0.93960000  0.40630000  0.94450000  0.5 0.0992076847
H  H80  1  0.90630000  0.56040000  0.94450000  0.5 0.0992076847
H  H81  1  0.56000000  0.90090000  0.65820000  0.5 0.0913176674
H  H82  1  0.59910000  0.06000000  0.65820000  0.5 0.0913176674
H  H83  1  0.44000000  0.09910000  0.65820000  0.5 0.0913176674
H  H84  1  0.40090000  0.94000000  0.65820000  0.5 0.0913176674
H  H85  1  0.44000000  0.90090000  0.15820000  0.5 0.0913176674
H  H86  1  0.40090000  0.06000000  0.15820000  0.5 0.0913176674
H  H87  1  0.56000000  0.09910000  0.15820000  0.5 0.0913176674
H  H88  1  0.59910000  0.94000000  0.15820000  0.5 0.0913176674
H  H89  1  0.94000000  0.59910000  0.34180000  0.5 0.0913176674
H  H90  1  0.90090000  0.44000000  0.34180000  0.5 0.0913176674
H  H91  1  0.06000000  0.40090000  0.34180000  0.5 0.0913176674
H  H92  1  0.09910000  0.56000000  0.34180000  0.5 0.0913176674
H  H93  1  0.06000000  0.59910000  0.84180000  0.5 0.0913176674
H  H94  1  0.09910000  0.44000000  0.84180000  0.5 0.0913176674
H  H95  1  0.94000000  0.40090000  0.84180000  0.5 0.0913176674
H  H96  1  0.90090000  0.56000000  0.84180000  0.5 0.0913176674
H  H97  1  0.43580000  0.90390000  0.74650000  0.5 0.0913176674
H  H98  1  0.59610000  0.93580000  0.74650000  0.5 0.0913176674
H  H99  1  0.56420000  0.09610000  0.74650000  0.5 0.0913176674
H  H100  1  0.40390000  0.06420000  0.74650000  0.5 0.0913176674
H  H101  1  0.56420000  0.90390000  0.24650000  0.5 0.0913176674
H  H102  1  0.40390000  0.93580000  0.24650000  0.5 0.0913176674
H  H103  1  0.43580000  0.09610000  0.24650000  0.5 0.0913176674
H  H104  1  0.59610000  0.06420000  0.24650000  0.5 0.0913176674
H  H105  1  0.06420000  0.59610000  0.25350000  0.5 0.0913176674
H  H106  1  0.90390000  0.56420000  0.25350000  0.5 0.0913176674
H  H107  1  0.93580000  0.40390000  0.25350000  0.5 0.0913176674
H  H108  1  0.09610000  0.43580000  0.25350000  0.5 0.0913176674
H  H109  1  0.93580000  0.59610000  0.75350000  0.5 0.0913176674
H  H110  1  0.09610000  0.56420000  0.75350000  0.5 0.0913176674
H  H111  1  0.06420000  0.40390000  0.75350000  0.5 0.0913176674
H  H112  1  0.90390000  0.43580000  0.75350000  0.5 0.0913176674
H  H113  1  0.44260000  0.90150000  0.84950000  0.5 0.1083511919
H  H114  1  0.59850000  0.94260000  0.84950000  0.5 0.1083511919
H  H115  1  0.55740000  0.09850000  0.84950000  0.5 0.1083511919
H  H116  1  0.40150000  0.05740000  0.84950000  0.5 0.1083511919
H  H117  1  0.55740000  0.90150000  0.34950000  0.5 0.1083511919
H  H118  1  0.40150000  0.94260000  0.34950000  0.5 0.1083511919
H  H119  1  0.44260000  0.09850000  0.34950000  0.5 0.1083511919
H  H120  1  0.59850000  0.05740000  0.34950000  0.5 0.1083511919
H  H121  1  0.05740000  0.59850000  0.15050000  0.5 0.1083511919
H  H122  1  0.90150000  0.55740000  0.15050000  0.5 0.1083511919
H  H123  1  0.94260000  0.40150000  0.15050000  0.5 0.1083511919
H  H124  1  0.09850000  0.44260000  0.15050000  0.5 0.1083511919
H  H125  1  0.94260000  0.59850000  0.65050000  0.5 0.1083511919
H  H126  1  0.09850000  0.55740000  0.65050000  0.5 0.1083511919
H  H127  1  0.05740000  0.40150000  0.65050000  0.5 0.1083511919
H  H128  1  0.90150000  0.44260000  0.65050000  0.5 0.1083511919
C  C1  1  0.68180000  0.95270000  0.46600000  1.0 0.2777278642
C  C2  1  0.54730000  0.18180000  0.46600000  1.0 0.2777278642
C  C3  1  0.31820000  0.04730000  0.46600000  1.0 0.2777278642
C  C4  1  0.45270000  0.81820000  0.46600000  1.0 0.2777278642
C  C5  1  0.31820000  0.95270000  0.96600000  1.0 0.2777278642
C  C6  1  0.45270000  0.18180000  0.96600000  1.0 0.2777278642
C  C7  1  0.68180000  0.04730000  0.96600000  1.0 0.2777278642
C  C8  1  0.54730000  0.81820000  0.96600000  1.0 0.2777278642
C  C9  1  0.81820000  0.54730000  0.53400000  1.0 0.2777278642
C  C10  1  0.95270000  0.31820000  0.53400000  1.0 0.2777278642
C  C11  1  0.18180000  0.45270000  0.53400000  1.0 0.2777278642
C  C12  1  0.04730000  0.68180000  0.53400000  1.0 0.2777278642
C  C13  1  0.18180000  0.54730000  0.03400000  1.0 0.2777278642
C  C14  1  0.04730000  0.31820000  0.03400000  1.0 0.2777278642
C  C15  1  0.81820000  0.45270000  0.03400000  1.0 0.2777278642
C  C16  1  0.95270000  0.68180000  0.03400000  1.0 0.2777278642
C  C17  1  0.74990000  0.91500000  0.48150000  1.0 -0.2072245903
C  C18  1  0.58500000  0.24990000  0.48150000  1.0 -0.2072245903
C  C19  1  0.25010000  0.08500000  0.48150000  1.0 -0.2072245903
C  C20  1  0.41500000  0.75010000  0.48150000  1.0 -0.2072245903
C  C21  1  0.25010000  0.91500000  0.98150000  1.0 -0.2072245903
C  C22  1  0.41500000  0.24990000  0.98150000  1.0 -0.2072245903
C  C23  1  0.74990000  0.08500000  0.98150000  1.0 -0.2072245903
C  C24  1  0.58500000  0.75010000  0.98150000  1.0 -0.2072245903
C  C25  1  0.75010000  0.58500000  0.51850000  1.0 -0.2072245903
C  C26  1  0.91500000  0.25010000  0.51850000  1.0 -0.2072245903
C  C27  1  0.24990000  0.41500000  0.51850000  1.0 -0.2072245903
C  C28  1  0.08500000  0.74990000  0.51850000  1.0 -0.2072245903
C  C29  1  0.24990000  0.58500000  0.01850000  1.0 -0.2072245903
C  C30  1  0.08500000  0.25010000  0.01850000  1.0 -0.2072245903
C  C31  1  0.75010000  0.41500000  0.01850000  1.0 -0.2072245903
C  C32  1  0.91500000  0.74990000  0.01850000  1.0 -0.2072245903
C  C33  1  0.81710000  0.95640000  0.49100000  1.0 0.2777278642
C  C34  1  0.54360000  0.31710000  0.49100000  1.0 0.2777278642
C  C35  1  0.18290000  0.04360000  0.49100000  1.0 0.2777278642
C  C36  1  0.45640000  0.68290000  0.49100000  1.0 0.2777278642
C  C37  1  0.18290000  0.95640000  0.99100000  1.0 0.2777278642
C  C38  1  0.45640000  0.31710000  0.99100000  1.0 0.2777278642
C  C39  1  0.81710000  0.04360000  0.99100000  1.0 0.2777278642
C  C40  1  0.54360000  0.68290000  0.99100000  1.0 0.2777278642
C  C41  1  0.68290000  0.54360000  0.50900000  1.0 0.2777278642
C  C42  1  0.95640000  0.18290000  0.50900000  1.0 0.2777278642
C  C43  1  0.31710000  0.45640000  0.50900000  1.0 0.2777278642
C  C44  1  0.04360000  0.81710000  0.50900000  1.0 0.2777278642
C  C45  1  0.31710000  0.54360000  0.00900000  1.0 0.2777278642
C  C46  1  0.04360000  0.18290000  0.00900000  1.0 0.2777278642
C  C47  1  0.68290000  0.45640000  0.00900000  1.0 0.2777278642
C  C48  1  0.95640000  0.81710000  0.00900000  1.0 0.2777278642
C  C49  1  0.74980000  0.83090000  0.49140000  1.0 0.0992076847
C  C50  1  0.66910000  0.24980000  0.49140000  1.0 0.0992076847
C  C51  1  0.25020000  0.16910000  0.49140000  1.0 0.0992076847
C  C52  1  0.33090000  0.75020000  0.49140000  1.0 0.0992076847
C  C53  1  0.25020000  0.83090000  0.99140000  1.0 0.0992076847
C  C54  1  0.33090000  0.24980000  0.99140000  1.0 0.0992076847
C  C55  1  0.74980000  0.16910000  0.99140000  1.0 0.0992076847
C  C56  1  0.66910000  0.75020000  0.99140000  1.0 0.0992076847
C  C57  1  0.75020000  0.66910000  0.50860000  1.0 0.0992076847
C  C58  1  0.83090000  0.25020000  0.50860000  1.0 0.0992076847
C  C59  1  0.24980000  0.33090000  0.50860000  1.0 0.0992076847
C  C60  1  0.16910000  0.74980000  0.50860000  1.0 0.0992076847
C  C61  1  0.24980000  0.66910000  0.00860000  1.0 0.0992076847
C  C62  1  0.16910000  0.25020000  0.00860000  1.0 0.0992076847
C  C63  1  0.75020000  0.33090000  0.00860000  1.0 0.0992076847
C  C64  1  0.83090000  0.74980000  0.00860000  1.0 0.0992076847
C  C65  1  0.81590000  0.79220000  0.51010000  1.0 -0.1631907817
C  C66  1  0.70780000  0.31590000  0.51010000  1.0 -0.1631907817
C  C67  1  0.18410000  0.20780000  0.51010000  1.0 -0.1631907817
C  C68  1  0.29220000  0.68410000  0.51010000  1.0 -0.1631907817
C  C69  1  0.18410000  0.79220000  0.01010000  1.0 -0.1631907817
C  C70  1  0.29220000  0.31590000  0.01010000  1.0 -0.1631907817
C  C71  1  0.81590000  0.20780000  0.01010000  1.0 -0.1631907817
C  C72  1  0.70780000  0.68410000  0.01010000  1.0 -0.1631907817
C  C73  1  0.68410000  0.70780000  0.48990000  1.0 -0.1631907817
C  C74  1  0.79220000  0.18410000  0.48990000  1.0 -0.1631907817
C  C75  1  0.31590000  0.29220000  0.48990000  1.0 -0.1631907817
C  C76  1  0.20780000  0.81590000  0.48990000  1.0 -0.1631907817
C  C77  1  0.31590000  0.70780000  0.98990000  1.0 -0.1631907817
C  C78  1  0.20780000  0.18410000  0.98990000  1.0 -0.1631907817
C  C79  1  0.68410000  0.29220000  0.98990000  1.0 -0.1631907817
C  C80  1  0.79220000  0.81590000  0.98990000  1.0 -0.1631907817
C  C81  1  0.81600000  0.71370000  0.51910000  1.0 -0.1631907817
C  C82  1  0.78630000  0.31600000  0.51910000  1.0 -0.1631907817
C  C83  1  0.18400000  0.28630000  0.51910000  1.0 -0.1631907817
C  C84  1  0.21370000  0.68400000  0.51910000  1.0 -0.1631907817
C  C85  1  0.18400000  0.71370000  0.01910000  1.0 -0.1631907817
C  C86  1  0.21370000  0.31600000  0.01910000  1.0 -0.1631907817
C  C87  1  0.81600000  0.28630000  0.01910000  1.0 -0.1631907817
C  C88  1  0.78630000  0.68400000  0.01910000  1.0 -0.1631907817
C  C89  1  0.68400000  0.78630000  0.48090000  1.0 -0.1631907817
C  C90  1  0.71370000  0.18400000  0.48090000  1.0 -0.1631907817
C  C91  1  0.31600000  0.21370000  0.48090000  1.0 -0.1631907817
C  C92  1  0.28630000  0.81600000  0.48090000  1.0 -0.1631907817
C  C93  1  0.31600000  0.78630000  0.98090000  1.0 -0.1631907817
C  C94  1  0.28630000  0.18400000  0.98090000  1.0 -0.1631907817
C  C95  1  0.68400000  0.21370000  0.98090000  1.0 -0.1631907817
C  C96  1  0.71370000  0.81600000  0.98090000  1.0 -0.1631907817
C  C97  1  0.94340000  0.03320000  0.62450000  1.0 0.0913176674
C  C98  1  0.46680000  0.44340000  0.62450000  1.0 0.0913176674
C  C99  1  0.05660000  0.96680000  0.62450000  1.0 0.0913176674
C  C100  1  0.53320000  0.55660000  0.62450000  1.0 0.0913176674
C  C101  1  0.05660000  0.03320000  0.12450000  1.0 0.0913176674
C  C102  1  0.53320000  0.44340000  0.12450000  1.0 0.0913176674
C  C103  1  0.94340000  0.96680000  0.12450000  1.0 0.0913176674
C  C104  1  0.46680000  0.55660000  0.12450000  1.0 0.0913176674
C  C105  1  0.55660000  0.46680000  0.37550000  1.0 0.0913176674
C  C106  1  0.03320000  0.05660000  0.37550000  1.0 0.0913176674
C  C107  1  0.44340000  0.53320000  0.37550000  1.0 0.0913176674
C  C108  1  0.96680000  0.94340000  0.37550000  1.0 0.0913176674
C  C109  1  0.44340000  0.46680000  0.87550000  1.0 0.0913176674
C  C110  1  0.96680000  0.05660000  0.87550000  1.0 0.0913176674
C  C111  1  0.55660000  0.53320000  0.87550000  1.0 0.0913176674
C  C112  1  0.03320000  0.94340000  0.87550000  1.0 0.0913176674
C  C113  1  0.94080000  0.03420000  0.68510000  1.0 -0.2045649081
C  C114  1  0.46580000  0.44080000  0.68510000  1.0 -0.2045649081
C  C115  1  0.05920000  0.96580000  0.68510000  1.0 -0.2072245903
C  C116  1  0.53420000  0.55920000  0.68510000  1.0 -0.2045649081
C  C117  1  0.05920000  0.03420000  0.18510000  1.0 -0.2045649081
C  C118  1  0.53420000  0.44080000  0.18510000  1.0 -0.2045649081
C  C119  1  0.94080000  0.96580000  0.18510000  1.0 -0.2045649081
C  C120  1  0.46580000  0.55920000  0.18510000  1.0 -0.2045649081
C  C121  1  0.55920000  0.46580000  0.31490000  1.0 -0.2045649081
C  C122  1  0.03420000  0.05920000  0.31490000  1.0 -0.2045649081
C  C123  1  0.44080000  0.53420000  0.31490000  1.0 -0.2045649081
C  C124  1  0.96580000  0.94080000  0.31490000  1.0 -0.2045649081
C  C125  1  0.44080000  0.46580000  0.81490000  1.0 -0.2072245903
C  C126  1  0.96580000  0.05920000  0.81490000  1.0 -0.2045649081
C  C127  1  0.55920000  0.53420000  0.81490000  1.0 -0.2072245903
C  C128  1  0.03420000  0.94080000  0.81490000  1.0 -0.2072245903
C  C129  1  0.00000000  0.00000000  0.71690000  1.0 0.0992076847
C  C130  1  0.50000000  0.50000000  0.71690000  1.0 0.0992076847
C  C131  1  0.00000000  0.00000000  0.21690000  1.0 0.0992076847
C  C132  1  0.50000000  0.50000000  0.21690000  1.0 0.0992076847
C  C133  1  0.50000000  0.50000000  0.28310000  1.0 0.0992076847
C  C134  1  0.00000000  0.00000000  0.28310000  1.0 0.0992076847
C  C135  1  0.50000000  0.50000000  0.78310000  1.0 0.0992076847
C  C136  1  0.00000000  0.00000000  0.78310000  1.0 0.0992076847
C  C137  1  0.50000000  0.00000000  0.67000000  1.0 0.0402839393
C  C138  1  0.50000000  0.00000000  0.17000000  1.0 0.0402839393
C  C139  1  0.00000000  0.50000000  0.33000000  1.0 0.0402839393
C  C140  1  0.00000000  0.50000000  0.83000000  1.0 0.0402839393
C  C141  1  0.50000000  0.00000000  0.73500000  1.0 0.0402839393
C  C142  1  0.50000000  0.00000000  0.23500000  1.0 0.0402839393
C  C143  1  0.00000000  0.50000000  0.26500000  1.0 0.0402839393
C  C144  1  0.00000000  0.50000000  0.76500000  1.0 0.0402839393
C  C145  1  0.53430000  0.94550000  0.57680000  0.5 0.0081204583
C  C146  1  0.55450000  0.03430000  0.57680000  0.5 0.0081204583
C  C147  1  0.46570000  0.05450000  0.57680000  0.5 0.0081204583
C  C148  1  0.44550000  0.96570000  0.57680000  0.5 0.0081204583
C  C149  1  0.46570000  0.94550000  0.07680000  0.5 0.0081204583
C  C150  1  0.44550000  0.03430000  0.07680000  0.5 0.0081204583
C  C151  1  0.53430000  0.05450000  0.07680000  0.5 0.0081204583
C  C152  1  0.55450000  0.96570000  0.07680000  0.5 0.0081204583
C  C153  1  0.96570000  0.55450000  0.42320000  0.5 0.0081204583
C  C154  1  0.94550000  0.46570000  0.42320000  0.5 0.0081204583
C  C155  1  0.03430000  0.44550000  0.42320000  0.5 0.0081204583
C  C156  1  0.05450000  0.53430000  0.42320000  0.5 0.0081204583
C  C157  1  0.03430000  0.55450000  0.92320000  0.5 0.0081204583
C  C158  1  0.05450000  0.46570000  0.92320000  0.5 0.0081204583
C  C159  1  0.96570000  0.44550000  0.92320000  0.5 0.0081204583
C  C160  1  0.94550000  0.53430000  0.92320000  0.5 0.0081204583
C  C161  1  0.53590000  0.94260000  0.63830000  0.5 -0.1111867368
C  C162  1  0.55740000  0.03590000  0.63830000  0.5 -0.1111867368
C  C163  1  0.46410000  0.05740000  0.63830000  0.5 -0.1111867368
C  C164  1  0.44260000  0.96410000  0.63830000  0.5 -0.1111867368
C  C165  1  0.46410000  0.94260000  0.13830000  0.5 -0.1111867368
C  C166  1  0.44260000  0.03590000  0.13830000  0.5 -0.1111867368
C  C167  1  0.53590000  0.05740000  0.13830000  0.5 -0.1111867368
C  C168  1  0.55740000  0.96410000  0.13830000  0.5 -0.1111867368
C  C169  1  0.96410000  0.55740000  0.36170000  0.5 -0.1111867368
C  C170  1  0.94260000  0.46410000  0.36170000  0.5 -0.1111867368
C  C171  1  0.03590000  0.44260000  0.36170000  0.5 -0.1111867368
C  C172  1  0.05740000  0.53590000  0.36170000  0.5 -0.1111867368
C  C173  1  0.03590000  0.55740000  0.86170000  0.5 -0.1111867368
C  C174  1  0.05740000  0.46410000  0.86170000  0.5 -0.1111867368
C  C175  1  0.96410000  0.44260000  0.86170000  0.5 -0.1111867368
C  C176  1  0.94260000  0.53590000  0.86170000  0.5 -0.1111867368
C  C177  1  0.46340000  0.94300000  0.76680000  0.5 -0.1029295684
C  C178  1  0.55700000  0.96340000  0.76680000  0.5 -0.1029295684
C  C179  1  0.53660000  0.05700000  0.76680000  0.5 -0.1029295684
C  C180  1  0.44300000  0.03660000  0.76680000  0.5 -0.1029295684
C  C181  1  0.53660000  0.94300000  0.26680000  0.5 -0.1029295684
C  C182  1  0.44300000  0.96340000  0.26680000  0.5 -0.1029295684
C  C183  1  0.46340000  0.05700000  0.26680000  0.5 -0.1029295684
C  C184  1  0.55700000  0.03660000  0.26680000  0.5 -0.1029295684
C  C185  1  0.03660000  0.55700000  0.23320000  0.5 -0.1029295684
C  C186  1  0.94300000  0.53660000  0.23320000  0.5 -0.1029295684
C  C187  1  0.96340000  0.44300000  0.23320000  0.5 -0.1029295684
C  C188  1  0.05700000  0.46340000  0.23320000  0.5 -0.1029295684
C  C189  1  0.96340000  0.55700000  0.73320000  0.5 -0.1029295684
C  C190  1  0.05700000  0.53660000  0.73320000  0.5 -0.1029295684
C  C191  1  0.03660000  0.44300000  0.73320000  0.5 -0.1029295684
C  C192  1  0.94300000  0.46340000  0.73320000  0.5 -0.1029295684
C  C193  1  0.46580000  0.94290000  0.82880000  0.5 -0.000213807
C  C194  1  0.55710000  0.96580000  0.82880000  0.5 -0.000213807
C  C195  1  0.53420000  0.05710000  0.82880000  0.5 -0.000213807
C  C196  1  0.44290000  0.03420000  0.82880000  0.5 -0.000213807
C  C197  1  0.53420000  0.94290000  0.32880000  0.5 -0.000213807
C  C198  1  0.44290000  0.96580000  0.32880000  0.5 -0.000213807
C  C199  1  0.46580000  0.05710000  0.32880000  0.5 -0.000213807
C  C200  1  0.55710000  0.03420000  0.32880000  0.5 -0.000213807
C  C201  1  0.03420000  0.55710000  0.17120000  0.5 -0.000213807
C  C202  1  0.94290000  0.53420000  0.17120000  0.5 -0.000213807
C  C203  1  0.96580000  0.44290000  0.17120000  0.5 -0.000213807
C  C204  1  0.05710000  0.46580000  0.17120000  0.5 -0.000213807
C  C205  1  0.96580000  0.55710000  0.67120000  0.5 -0.000213807
C  C206  1  0.05710000  0.53420000  0.67120000  0.5 -0.000213807
C  C207  1  0.03420000  0.44290000  0.67120000  0.5 -0.000213807
C  C208  1  0.94290000  0.46580000  0.67120000  0.5 -0.000213807
N  N1  1  0.62310000  0.97910000  0.45260000  1.0 -0.4566848963
N  N2  1  0.52090000  0.12310000  0.45260000  1.0 -0.4566848963
N  N3  1  0.37690000  0.02090000  0.45260000  1.0 -0.4566848963
N  N4  1  0.47910000  0.87690000  0.45260000  1.0 -0.4566848963
N  N5  1  0.37690000  0.97910000  0.95260000  1.0 -0.4566848963
N  N6  1  0.47910000  0.12310000  0.95260000  1.0 -0.4566848963
N  N7  1  0.62310000  0.02090000  0.95260000  1.0 -0.4566848963
N  N8  1  0.52090000  0.87690000  0.95260000  1.0 -0.4566848963
N  N9  1  0.87690000  0.52090000  0.54740000  1.0 -0.4566848963
N  N10  1  0.97910000  0.37690000  0.54740000  1.0 -0.4566848963
N  N11  1  0.12310000  0.47910000  0.54740000  1.0 -0.4566848963
N  N12  1  0.02090000  0.62310000  0.54740000  1.0 -0.4566848963
N  N13  1  0.12310000  0.52090000  0.04740000  1.0 -0.4566848963
N  N14  1  0.02090000  0.37690000  0.04740000  1.0 -0.4566848963
N  N15  1  0.87690000  0.47910000  0.04740000  1.0 -0.4566848963
N  N16  1  0.97910000  0.62310000  0.04740000  1.0 -0.4566848963
N  N17  1  0.87630000  0.98570000  0.49960000  1.0 -0.4502368379
N  N18  1  0.51430000  0.37630000  0.49960000  1.0 -0.4502368379
N  N19  1  0.12370000  0.01430000  0.49960000  1.0 -0.4502368379
N  N20  1  0.48570000  0.62370000  0.49960000  1.0 -0.4502368379
N  N21  1  0.12370000  0.98570000  0.99960000  1.0 -0.4502368379
N  N22  1  0.48570000  0.37630000  0.99960000  1.0 -0.4502368379
N  N23  1  0.87630000  0.01430000  0.99960000  1.0 -0.4502368379
N  N24  1  0.51430000  0.62370000  0.99960000  1.0 -0.4502368379
N  N25  1  0.62370000  0.51430000  0.50040000  1.0 -0.4502368379
N  N26  1  0.98570000  0.12370000  0.50040000  1.0 -0.4502368379
N  N27  1  0.37630000  0.48570000  0.50040000  1.0 -0.4502368379
N  N28  1  0.01430000  0.87630000  0.50040000  1.0 -0.4502368379
N  N29  1  0.37630000  0.51430000  0.00040000  1.0 -0.4502368379
N  N30  1  0.01430000  0.12370000  0.00040000  1.0 -0.4502368379
N  N31  1  0.62370000  0.48570000  0.00040000  1.0 -0.4502368379
N  N32  1  0.98570000  0.87630000  0.00040000  1.0 -0.4502368379
N  N33  1  0.00000000  0.00000000  0.59420000  1.0 -0.2072245903
N  N34  1  0.50000000  0.50000000  0.59420000  1.0 -0.2072245903
N  N35  1  0.00000000  0.00000000  0.09420000  1.0 -0.2072245903
N  N36  1  0.50000000  0.50000000  0.09420000  1.0 -0.2072245903
N  N37  1  0.50000000  0.50000000  0.40580000  1.0 -0.2072245903
N  N38  1  0.00000000  0.00000000  0.40580000  1.0 -0.2072245903
N  N39  1  0.50000000  0.50000000  0.90580000  1.0 -0.2072245903
N  N40  1  0.00000000  0.00000000  0.90580000  1.0 -0.2072245903
N  N41  1  0.50000000  0.00000000  0.54720000  1.0 -0.1374236583
N  N42  1  0.50000000  0.00000000  0.04720000  1.0 -0.1374236583
N  N43  1  0.00000000  0.50000000  0.45280000  1.0 -0.1337662093
N  N44  1  0.00000000  0.50000000  0.95280000  1.0 -0.1337662093
N  N45  1  0.50000000  0.00000000  0.85880000  1.0 -0.1477470375
N  N46  1  0.50000000  0.00000000  0.35880000  1.0 -0.1477470375
N  N47  1  0.00000000  0.50000000  0.14120000  1.0 -0.1477470375
N  N48  1  0.00000000  0.50000000  0.64120000  1.0 -0.1477470375
