# DDEC6 charges by PACMAN v1.1 (https://github.com/mtap-research/PACMAN-charge/)
data_c8cc01837e2_1_FSR_pacman
_symmetry_space_group_name_H-M   'P 1'
_cell_length_a   23.56160000
_cell_length_b   10.81700000
_cell_length_c   28.57280000
_cell_angle_alpha   90.00000000
_cell_angle_beta   90.09600000
_cell_angle_gamma   90.00000000
_symmetry_Int_Tables_number   1
_chemical_formula_structural   Zn24H60C172S27.8N4O102
_chemical_formula_sum   'Zn24 H60 C172 S27.8 N4 O102'
_cell_volume   7282.22008552
_cell_formula_units_Z   1
loop_
 _symmetry_equiv_pos_site_id
 _symmetry_equiv_pos_as_xyz
  1  'x, y, z'
loop_
 _atom_site_type_symbol
 _atom_site_label
 _atom_site_symmetry_multiplicity
 _atom_site_fract_x
 _atom_site_fract_y
 _atom_site_fract_z
 _atom_site_occupancy
 _atom_site_charge
Zn  Zn1  1  0.97313000  0.98050000  0.38381000  1.0 1.148034686
Zn  Zn2  1  0.02687000  0.98050000  0.61619000  1.0 1.148034686
Zn  Zn3  1  0.04785000  0.85000000  0.29749000  1.0 1.0292793653
Zn  Zn4  1  0.95215000  0.85000000  0.70251000  1.0 1.0292793653
Zn  Zn5  1  0.07883000  0.71850000  0.66449000  1.0 0.9656854412
Zn  Zn6  1  0.92117000  0.71850000  0.33551000  1.0 0.9656854412
Zn  Zn7  1  0.40793000  0.94060000  0.65882000  1.0 1.0021401785
Zn  Zn8  1  0.59207000  0.94060000  0.34118000  1.0 1.0021401785
Zn  Zn9  1  0.45263000  0.94690000  0.79717000  1.0 1.0376304231
Zn  Zn10  1  0.54737000  0.94690000  0.20283000  1.0 1.0376304231
Zn  Zn11  1  0.52718000  0.81490000  0.88363000  1.0 1.0466243765
Zn  Zn12  1  0.47282000  0.81490000  0.11637000  1.0 1.0466243765
Zn  Zn13  1  0.44941000  0.21490000  0.61649000  1.0 1.148034686
Zn  Zn14  1  0.55059000  0.21490000  0.38351000  1.0 1.1447435162
Zn  Zn15  1  0.52458000  0.07970000  0.70288000  1.0 1.0292793653
Zn  Zn16  1  0.47542000  0.07970000  0.29712000  1.0 1.0292793653
Zn  Zn17  1  0.57818000  0.08000000  0.83554000  1.0 0.986719682
Zn  Zn18  1  0.42182000  0.08000000  0.16446000  1.0 0.986719682
Zn  Zn19  1  0.90780000  0.85810000  0.84184000  1.0 0.9617415211
Zn  Zn20  1  0.09220000  0.85810000  0.15816000  1.0 0.9617415211
Zn  Zn21  1  0.94920000  0.57990000  0.88300000  1.0 1.1690067193
Zn  Zn22  1  0.05080000  0.57990000  0.11700000  1.0 1.1690067193
Zn  Zn23  1  0.02364000  0.71690000  0.79686000  1.0 1.0376304231
Zn  Zn24  1  0.97636000  0.71690000  0.20314000  1.0 1.0376304231
H  H1  1  0.98743000  0.22142000  0.82752000  1.0 0.1389134477
H  H2  1  0.01257000  0.22142000  0.17248000  1.0 0.1389134477
H  H3  1  0.08255000  0.03887000  0.74418000  1.0 0.1612710199
H  H4  1  0.91745000  0.03887000  0.25582000  1.0 0.1612710199
H  H5  1  0.12044000  0.38860000  0.77288000  1.0 0.130707564
H  H6  1  0.87956000  0.38860000  0.22712000  1.0 0.130707564
H  H7  1  0.94783000  0.72799000  0.01149000  1.0 0.130707564
H  H8  1  0.05217000  0.72799000  0.98851000  1.0 0.130707564
H  H9  1  0.88712000  0.94925000  0.11194000  1.0 0.130707564
H  H10  1  0.11288000  0.94925000  0.88806000  1.0 0.130707564
H  H11  1  0.82898000  0.98002000  0.98136000  1.0 0.1389134477
H  H12  1  0.17102000  0.98002000  0.01864000  1.0 0.1389134477
H  H13  1  0.74241000  0.95553000  0.79049000  1.0 0.130707564
H  H14  1  0.25759000  0.95553000  0.20951000  1.0 0.130707564
H  H15  1  0.67753000  0.08640000  0.66813000  1.0 0.1486881777
H  H16  1  0.32247000  0.08640000  0.33187000  1.0 0.1486881777
H  H17  1  0.82463000  0.89927000  0.66808000  1.0 0.1389134477
H  H18  1  0.17537000  0.89927000  0.33192000  1.0 0.1389134477
H  H19  1  0.55470000  0.95195000  0.01458000  1.0 0.1389134477
H  H20  1  0.44530000  0.95195000  0.98542000  1.0 0.1389134477
H  H21  1  0.63663000  0.17751000  0.10466000  1.0 0.1389134477
H  H22  1  0.36337000  0.17751000  0.89534000  1.0 0.1389134477
H  H23  1  0.65418000  0.22698000  0.96639000  1.0 0.130707564
H  H24  1  0.34582000  0.22698000  0.03361000  1.0 0.130707564
H  H25  1  0.50486000  0.45122000  0.82220000  1.0 0.130707564
H  H26  1  0.49514000  0.45122000  0.17780000  1.0 0.130707564
H  H27  1  0.36816000  0.61287000  0.76589000  1.0 0.130707564
H  H28  1  0.63184000  0.61287000  0.23411000  1.0 0.130707564
H  H29  1  0.39107000  0.23804000  0.75949000  1.0 0.1612710199
H  H30  1  0.60893000  0.23804000  0.24051000  1.0 0.1612710199
H  H31  1  0.48226000  0.57580000  0.67304000  1.0 0.1389134477
H  H32  1  0.51774000  0.57580000  0.32696000  1.0 0.1389134477
H  H33  1  0.59117000  0.77588000  0.75092000  1.0 0.1700938522
H  H34  1  0.40883000  0.77588000  0.24908000  1.0 0.1700938522
H  H35  1  0.60563000  0.40686000  0.74280000  1.0 0.1486881777
H  H36  1  0.39437000  0.40686000  0.25720000  1.0 0.1486881777
H  H37  1  0.43832000  0.08797000  0.48697000  1.0 0.1389134477
H  H38  1  0.56168000  0.08797000  0.51303000  1.0 0.1389134477
H  H39  1  0.37617000  0.85650000  0.38993000  1.0 0.130707564
H  H40  1  0.62383000  0.85650000  0.61007000  1.0 0.130707564
H  H41  1  0.34649000  0.78604000  0.52663000  1.0 0.1486881777
H  H42  1  0.65351000  0.78604000  0.47337000  1.0 0.1486881777
H  H43  1  0.24392000  0.84581000  0.70986000  1.0 0.1389134477
H  H44  1  0.75608000  0.84581000  0.29014000  1.0 0.1389134477
H  H45  1  0.16572000  0.77297000  0.82875000  1.0 0.130707564
H  H46  1  0.83428000  0.77297000  0.17125000  1.0 0.130707564
H  H47  1  0.32789000  0.86985000  0.82289000  1.0 0.1389134477
H  H48  1  0.67211000  0.86985000  0.17711000  1.0 0.1389134477
H  H49  1  0.00648000  0.35627000  0.68297000  1.0 0.1389134477
H  H50  1  0.99352000  0.35627000  0.31703000  1.0 0.1389134477
H  H51  1  0.86050000  0.19544000  0.72003000  1.0 0.1486881777
H  H52  1  0.13950000  0.19544000  0.27997000  1.0 0.1486881777
H  H53  1  0.88159000  0.55707000  0.73674000  1.0 0.1700938522
H  H54  1  0.11841000  0.55707000  0.26326000  1.0 0.1700938522
H  H55  1  0.07008000  0.86946000  0.48375000  1.0 0.1389134477
H  H56  1  0.92992000  0.86946000  0.51625000  1.0 0.1389134477
H  H57  1  0.15135000  0.63444000  0.39882000  1.0 0.1389134477
H  H58  1  0.84865000  0.63444000  0.60118000  1.0 0.1389134477
H  H59  1  0.14774000  0.57254000  0.53798000  1.0 0.1389134477
H  H60  1  0.85226000  0.57254000  0.46202000  1.0 0.1389134477
C  C1  1  0.04900000  0.32600000  0.79920000  1.0 -0.0175816555
C  C2  1  0.95100000  0.32600000  0.20080000  1.0 -0.0175816555
C  C3  1  0.01890000  0.21600000  0.80800000  1.0 -0.1292877717
C  C4  1  0.98110000  0.21600000  0.19200000  1.0 -0.1292877717
C  C5  1  0.03230000  0.10200000  0.79000000  1.0 -0.0083141968
C  C6  1  0.96770000  0.10200000  0.21000000  1.0 -0.0083141968
C  C7  1  0.07520000  0.11100000  0.76100000  1.0 -0.1292877717
C  C8  1  0.92480000  0.11100000  0.23900000  1.0 -0.1292877717
C  C9  1  0.10990000  0.20400000  0.75150000  1.0 0.1196818351
C  C10  1  0.89010000  0.20400000  0.24850000  1.0 0.1196818351
C  C11  1  0.09640000  0.32100000  0.77500000  1.0 -0.1165950369
C  C12  1  0.90360000  0.32100000  0.22500000  1.0 -0.1165950369
C  C13  1  0.02620000  0.44900000  0.81680000  1.0 0.6014720839
C  C14  1  0.97380000  0.44900000  0.18320000  1.0 0.6014720839
C  C15  1  0.99900000  0.98900000  0.80050000  1.0 0.6101507734
C  C16  1  0.00100000  0.98900000  0.19950000  1.0 0.6101507734
C  C17  1  0.89010000  0.85200000  0.98760000  1.0 -0.0083141968
C  C18  1  0.10990000  0.85200000  0.01240000  1.0 -0.0083141968
C  C19  1  0.92340000  0.79100000  0.02020000  1.0 -0.0902789569
C  C20  1  0.07660000  0.79100000  0.97980000  1.0 -0.0902789569
C  C21  1  0.91930000  0.82900000  0.06650000  1.0 -0.0175816555
C  C22  1  0.08070000  0.82900000  0.93350000  1.0 -0.0175816555
C  C23  1  0.88600000  0.92500000  0.08070000  1.0 -0.1373769202
C  C24  1  0.11400000  0.92500000  0.91930000  1.0 -0.1373769202
C  C25  1  0.85020000  0.98900000  0.05000000  1.0 0.0563836238
C  C26  1  0.14980000  0.98900000  0.95000000  1.0 0.0563836238
C  C27  1  0.85330000  0.94500000  0.00330000  1.0 -0.1292877717
C  C28  1  0.14670000  0.94500000  0.99670000  1.0 -0.1292877717
C  C29  1  0.89420000  0.81400000  0.93590000  1.0 0.5810093424
C  C30  1  0.10580000  0.81400000  0.06410000  1.0 0.5810093424
C  C31  1  0.94100000  0.74300000  0.10290000  1.0 0.6197742364
C  C32  1  0.05900000  0.74300000  0.89710000  1.0 0.6197742364
C  C33  1  0.78990000  0.91400000  0.73420000  1.0 0.002441787
C  C34  1  0.21010000  0.91400000  0.26580000  1.0 0.002441787
C  C35  1  0.74320000  0.96000000  0.75800000  1.0 -0.1292877717
C  C36  1  0.25680000  0.96000000  0.24200000  1.0 -0.1292877717
C  C37  1  0.69570000  0.01700000  0.73380000  1.0 0.0109923734
C  C38  1  0.30430000  0.01700000  0.26620000  1.0 0.0109923734
C  C39  1  0.70140000  0.03500000  0.68510000  1.0 -0.1585292874
C  C40  1  0.29860000  0.03500000  0.31490000  1.0 -0.1585292874
C  C41  1  0.74500000  0.97000000  0.66480000  1.0 0.1196818351
C  C42  1  0.25500000  0.97000000  0.33520000  1.0 0.1196818351
C  C43  1  0.79290000  0.92300000  0.68520000  1.0 -0.1479988833
C  C44  1  0.20710000  0.92300000  0.31480000  1.0 -0.1479988833
C  C45  1  0.84090000  0.87200000  0.76290000  1.0 0.6101507734
C  C46  1  0.15910000  0.87200000  0.23710000  1.0 0.6101507734
C  C47  1  0.64070000  0.03800000  0.75890000  1.0 0.5587978503
C  C48  1  0.35930000  0.03800000  0.24110000  1.0 0.5587978503
C  C49  1  0.60560000  0.07900000  0.98130000  1.0 -0.0083141968
C  C50  1  0.39440000  0.07900000  0.01870000  1.0 -0.0083141968
C  C51  1  0.58030000  0.01600000  0.01950000  1.0 -0.101617247
C  C52  1  0.41970000  0.01600000  0.98050000  1.0 -0.101617247
C  C53  1  0.59500000  0.05400000  0.06470000  1.0 0.002441787
C  C54  1  0.40500000  0.05400000  0.93530000  1.0 0.002441787
C  C55  1  0.63080000  0.15200000  0.07400000  1.0 -0.1292877717
C  C56  1  0.36920000  0.15200000  0.92600000  1.0 -0.1292877717
C  C57  1  0.65840000  0.21300000  0.03690000  1.0 0.0109923734
C  C58  1  0.34160000  0.21300000  0.96310000  1.0 0.0109923734
C  C59  1  0.64120000  0.18000000  0.99130000  1.0 -0.1292877717
C  C60  1  0.35880000  0.18000000  0.00870000  1.0 -0.1292877717
C  C61  1  0.58540000  0.03700000  0.93350000  1.0 0.5742171547
C  C62  1  0.41460000  0.03700000  0.06650000  1.0 0.5742171547
C  C63  1  0.58070000  0.96600000  0.10440000  1.0 0.6014720839
C  C64  1  0.41930000  0.96600000  0.89560000  1.0 0.6014720839
C  C65  1  0.45210000  0.32920000  0.78940000  1.0 -0.0083141968
C  C66  1  0.54790000  0.32920000  0.21060000  1.0 -0.0083141968
C  C67  1  0.47060000  0.44500000  0.80620000  1.0 -0.0902789569
C  C68  1  0.52940000  0.44500000  0.19380000  1.0 -0.0902789569
C  C69  1  0.43780000  0.54900000  0.79870000  1.0 -0.0294703123
C  C70  1  0.56220000  0.54900000  0.20130000  1.0 -0.0294703123
C  C71  1  0.38780000  0.54100000  0.77360000  1.0 -0.1292877717
C  C72  1  0.61220000  0.54100000  0.22640000  1.0 -0.1292877717
C  C73  1  0.36510000  0.42000000  0.75870000  1.0 0.0503842442
C  C74  1  0.63490000  0.42000000  0.24130000  1.0 0.0563836238
C  C75  1  0.40260000  0.31700000  0.76850000  1.0 -0.1165950369
C  C76  1  0.59740000  0.31700000  0.23150000  1.0 -0.1165950369
C  C77  1  0.49000000  0.21770000  0.79690000  1.0 0.6101507734
C  C78  1  0.51000000  0.21770000  0.20310000  1.0 0.6101507734
C  C79  1  0.45830000  0.67420000  0.81250000  1.0 0.6014720839
C  C80  1  0.54170000  0.67420000  0.18750000  1.0 0.6014720839
C  C81  1  0.54290000  0.47440000  0.70220000  1.0 -0.0294703123
C  C82  1  0.45710000  0.47440000  0.29780000  1.0 -0.0294703123
C  C83  1  0.51420000  0.58100000  0.69210000  1.0 -0.1100053398
C  C84  1  0.48580000  0.58100000  0.30790000  1.0 -0.1100053398
C  C85  1  0.53050000  0.69560000  0.70880000  1.0 -0.0083141968
C  C86  1  0.46950000  0.69560000  0.29120000  1.0 -0.0083141968
C  C87  1  0.57970000  0.70100000  0.73800000  1.0 -0.1100053398
C  C88  1  0.42030000  0.70100000  0.26200000  1.0 -0.1100053398
C  C89  1  0.60990000  0.59500000  0.74700000  1.0 0.0503842442
C  C90  1  0.39010000  0.59500000  0.25300000  1.0 0.0503842442
C  C91  1  0.58870000  0.47900000  0.73230000  1.0 -0.1100053398
C  C92  1  0.41130000  0.47900000  0.26770000  1.0 -0.1100053398
C  C93  1  0.52010000  0.35500000  0.68380000  1.0 0.5742171547
C  C94  1  0.47990000  0.35500000  0.31620000  1.0 0.5742171547
C  C95  1  0.49270000  0.80800000  0.70300000  1.0 0.6101507734
C  C96  1  0.50730000  0.80800000  0.29700000  1.0 0.6101507734
C  C97  1  0.38970000  0.95100000  0.51260000  1.0 -0.0083141968
C  C98  1  0.61030000  0.95100000  0.48740000  1.0 -0.0083141968
C  C99  1  0.41820000  0.01700000  0.47880000  1.0 -0.1100053398
C  C100  1  0.58180000  0.01700000  0.52120000  1.0 -0.1100053398
C  C101  1  0.41680000  0.97800000  0.43310000  1.0 0.002441787
C  C102  1  0.58320000  0.97800000  0.56690000  1.0 0.002441787
C  C103  1  0.38270000  0.87600000  0.42120000  1.0 -0.1479988833
C  C104  1  0.61730000  0.87600000  0.57880000  1.0 -0.1479988833
C  C105  1  0.35860000  0.80500000  0.45660000  1.0 0.0365704541
C  C106  1  0.64140000  0.80500000  0.54340000  1.0 0.0365704541
C  C107  1  0.36150000  0.83600000  0.50310000  1.0 -0.1479988833
C  C108  1  0.63850000  0.83600000  0.49690000  1.0 -0.1479988833
C  C109  1  0.39430000  0.00000000  0.56290000  1.0 0.6014720839
C  C110  1  0.60570000  0.00000000  0.43710000  1.0 0.6014720839
C  C111  1  0.45240000  0.04100000  0.39660000  1.0 0.6014720839
C  C112  1  0.54760000  0.04100000  0.60340000  1.0 0.6014720839
C  C113  1  0.29070000  0.85400000  0.76360000  1.0 -0.0083141968
C  C114  1  0.70930000  0.85400000  0.23640000  1.0 -0.0083141968
C  C115  1  0.24550000  0.83700000  0.74220000  1.0 -0.0902789569
C  C116  1  0.75450000  0.83700000  0.25780000  1.0 -0.0902789569
C  C117  1  0.19880000  0.80500000  0.76640000  1.0 -0.0403161411
C  C118  1  0.80120000  0.80500000  0.23360000  1.0 -0.0403161411
C  C119  1  0.19960000  0.78900000  0.81330000  1.0 -0.1165950369
C  C120  1  0.80040000  0.78900000  0.18670000  1.0 -0.1165950369
C  C121  1  0.25530000  0.79800000  0.84200000  1.0 0.130707564
C  C122  1  0.74470000  0.79800000  0.15800000  1.0 0.1196818351
C  C123  1  0.29390000  0.84300000  0.80990000  1.0 -0.1479988833
C  C124  1  0.70610000  0.84300000  0.19010000  1.0 -0.1479988833
C  C125  1  0.33920000  0.91700000  0.73770000  1.0 0.6310364148
C  C126  1  0.66080000  0.91700000  0.26230000  1.0 0.6310364148
C  C127  1  0.14930000  0.74600000  0.74390000  1.0 0.6197742364
C  C128  1  0.85070000  0.74600000  0.25610000  1.0 0.6197742364
C  C129  1  0.94800000  0.47200000  0.70660000  1.0 -0.0083141968
C  C130  1  0.05200000  0.47200000  0.29340000  1.0 -0.0083141968
C  C131  1  0.96950000  0.36100000  0.69420000  1.0 -0.101617247
C  C132  1  0.03050000  0.36100000  0.30580000  1.0 -0.101617247
C  C133  1  0.93730000  0.25100000  0.69770000  1.0 -0.0083141968
C  C134  1  0.06270000  0.25100000  0.30230000  1.0 -0.0083141968
C  C135  1  0.88260000  0.26500000  0.71420000  1.0 -0.101617247
C  C136  1  0.11740000  0.26500000  0.28580000  1.0 -0.101617247
C  C137  1  0.86040000  0.38200000  0.72230000  1.0 0.0503842442
C  C138  1  0.13960000  0.38200000  0.27770000  1.0 0.0503842442
C  C139  1  0.89440000  0.48300000  0.72410000  1.0 -0.101617247
C  C140  1  0.10560000  0.48300000  0.27590000  1.0 -0.101617247
C  C141  1  0.98920000  0.57700000  0.70020000  1.0 0.6101507734
C  C142  1  0.01080000  0.57700000  0.29980000  1.0 0.6101507734
C  C143  1  0.95960000  0.12500000  0.68600000  1.0 0.6014720839
C  C144  1  0.04040000  0.12500000  0.31400000  1.0 0.6014720839
C  C145  1  0.10420000  0.72600000  0.51760000  1.0 -0.0403161411
C  C146  1  0.89580000  0.72600000  0.48240000  1.0 -0.0403161411
C  C147  1  0.09100000  0.79700000  0.47950000  1.0 -0.0902789569
C  C148  1  0.90900000  0.79700000  0.52050000  1.0 -0.0902789569
C  C149  1  0.10840000  0.76500000  0.43440000  1.0 -0.0083141968
C  C150  1  0.89160000  0.76500000  0.56560000  1.0 -0.0083141968
C  C151  1  0.13910000  0.65700000  0.42860000  1.0 -0.1100053398
C  C152  1  0.86090000  0.65700000  0.57140000  1.0 -0.1100053398
C  C153  1  0.15220000  0.58100000  0.46700000  1.0 0.1196818351
C  C154  1  0.84780000  0.58100000  0.53300000  1.0 0.1196818351
C  C155  1  0.13670000  0.61900000  0.51200000  1.0 -0.1100053398
C  C156  1  0.86330000  0.61900000  0.48800000  1.0 -0.1100053398
C  C157  1  0.08490000  0.76300000  0.56490000  1.0 0.6101507734
C  C158  1  0.91510000  0.76300000  0.43510000  1.0 0.6101507734
C  C159  1  0.07780000  0.82200000  0.39290000  1.0 0.5810093424
C  C160  1  0.92220000  0.82200000  0.60710000  1.0 0.5810093424
C  C161  1  0.64450000  0.76600000  0.91490000  1.0 0.4931051871
C  C162  1  0.35550000  0.76600000  0.08510000  1.0 0.4931051871
C  C163  1  0.72600000  0.81700000  0.96650000  1.0 -0.0294703123
C  C164  1  0.27400000  0.81700000  0.03350000  1.0 -0.0294703123
C  C165  1  0.72860000  0.89500000  0.88580000  1.0 0.1196818351
C  C166  1  0.27140000  0.89500000  0.11420000  1.0 0.1196818351
C  C167  1  0.85300000  0.04000000  0.41550000  1.0 0.5287890873
C  C168  1  0.14700000  0.04000000  0.58450000  1.0 0.5287890873
C  C169  1  0.76000000  0.06600000  0.45660000  1.0 0.0109923734
C  C170  1  0.24000000  0.06600000  0.54340000  1.0 0.0109923734
C  C171  1  0.76100000  0.99400000  0.37420000  1.0 0.130707564
C  C172  1  0.23900000  0.99400000  0.62580000  1.0 0.130707564
S  S1  1  0.16840000  0.20410000  0.70730000  1.0 -0.3923344025
S  S2  1  0.83160000  0.20410000  0.29270000  1.0 -0.3923344025
S  S3  1  0.80730000  0.11170000  0.07370000  1.0 0.1832084349
S  S4  1  0.19270000  0.11170000  0.92630000  1.0 0.1832084349
S  S5  1  0.75920000  0.97530000  0.59920000  1.0 -0.3543898323
S  S6  1  0.24080000  0.97530000  0.40080000  1.0 -0.3543898323
S  S7  1  0.70420000  0.32540000  0.04570000  1.0 0.3268653593
S  S8  1  0.29580000  0.32540000  0.95430000  1.0 0.3217582545
S  S9  1  0.29820000  0.40460000  0.73690000  1.0 0.130707564
S  S10  1  0.70180000  0.40460000  0.26310000  1.0 0.130707564
S  S11  1  0.67080000  0.59760000  0.78330000  1.0 0.4618343852
S  S12  1  0.32920000  0.59760000  0.21670000  1.0 0.4618343852
S  S13  1  0.32510000  0.65050000  0.45020000  1.0 0.1612710199
S  S14  1  0.67490000  0.65050000  0.54980000  1.0 0.1612710199
S  S15  1  0.25520000  0.77160000  0.90040000  1.0 -0.2709669927
S  S16  1  0.74480000  0.77160000  0.09960000  1.0 -0.2636791923
S  S17  1  0.78800000  0.41230000  0.74230000  1.0 0.4730198673
S  S18  1  0.21200000  0.41230000  0.25770000  1.0 0.4730198673
S  S19  1  0.19350000  0.43990000  0.45640000  1.0 -0.3923344025
S  S20  1  0.80650000  0.43990000  0.54360000  1.0 -0.3923344025
S  S21  1  0.78800000  0.28800000  0.79800000  0.17 -0.2006381013
S  S22  1  0.21200000  0.28800000  0.20200000  0.17 -0.2006381013
S  S23  1  0.24510000  0.41100000  0.79310000  0.21 -0.0294703123
S  S24  1  0.75490000  0.41100000  0.20690000  0.21 -0.0294703123
S  S25  1  0.66600000  0.43400000  0.82150000  0.26 -0.2709669927
S  S26  1  0.33400000  0.43400000  0.17850000  0.26 -0.2709669927
S  S27  1  0.79200000  0.10700000  0.14280000  0.27 0.0326715932
S  S28  1  0.20800000  0.10700000  0.85720000  0.27 0.0326715932
S  S29  1  0.81900000  0.13500000  0.14370000  0.27 0.0216105451
S  S30  1  0.18100000  0.13500000  0.85630000  0.27 0.0216105451
S  S31  1  0.74420000  0.45400000  0.68440000  0.27 -0.230135736
S  S32  1  0.25580000  0.45400000  0.31560000  0.27 -0.230135736
S  S33  1  0.66170000  0.49100000  0.03890000  0.29 -0.2476151445
S  S34  1  0.33830000  0.49100000  0.96110000  0.29 -0.2476151445
S  S35  1  0.24190000  0.52000000  0.76820000  0.29 -0.0294703123
S  S36  1  0.75810000  0.52000000  0.23180000  0.29 -0.0294703123
S  S37  1  0.34560000  0.60600000  0.38240000  0.31 0.089152637
S  S38  1  0.65440000  0.60600000  0.61760000  0.31 0.089152637
S  S39  1  0.28410000  0.70200000  0.38490000  0.32 0.0365704541
S  S40  1  0.71590000  0.70200000  0.61510000  0.32 0.0365704541
S  S41  1  0.76380000  0.18780000  0.02280000  0.5 -0.1585292874
S  S42  1  0.23620000  0.18780000  0.97720000  0.5 -0.1585292874
S  S43  1  0.73410000  0.66300000  0.74150000  0.74 -0.2753750542
S  S44  1  0.26590000  0.66300000  0.25850000  0.74 -0.2753750542
N  N1  1  0.69740000  0.81600000  0.92010000  1.0 -0.1373769202
N  N2  1  0.30260000  0.81600000  0.07990000  1.0 -0.1373769202
N  N3  1  0.79460000  0.03100000  0.41500000  1.0 -0.169133977
N  N4  1  0.20540000  0.03100000  0.58500000  1.0 -0.169133977
O  O1  1  0.05200000  0.93100000  0.40350000  1.0 -0.5616214433
O  O2  1  0.94800000  0.93100000  0.59650000  1.0 -0.5616214433
O  O3  1  0.08630000  0.77600000  0.35620000  1.0 -0.4600836793
O  O4  1  0.91370000  0.77600000  0.64380000  1.0 -0.4600836793
O  O5  1  0.09980000  0.68200000  0.59700000  1.0 -0.5463419491
O  O6  1  0.90020000  0.68200000  0.40300000  1.0 -0.5463419491
O  O7  1  0.05750000  0.86200000  0.56740000  1.0 -0.5311027493
O  O8  1  0.94250000  0.86200000  0.43260000  1.0 -0.5311027493
O  O9  1  0.02700000  0.57500000  0.67370000  1.0 -0.437130154
O  O10  1  0.97300000  0.57500000  0.32630000  1.0 -0.437130154
O  O11  1  0.97410000  0.67200000  0.72750000  1.0 -0.5820370772
O  O12  1  0.02590000  0.67200000  0.27250000  1.0 -0.5820370772
O  O13  1  0.99850000  0.11500000  0.65700000  1.0 -0.4692892888
O  O14  1  0.00150000  0.11500000  0.34300000  1.0 -0.4692892888
O  O15  1  0.93290000  0.03200000  0.70370000  1.0 -0.5396412726
O  O16  1  0.06710000  0.03200000  0.29630000  1.0 -0.5396412726
O  O17  1  0.15030000  0.75400000  0.69680000  1.0 -0.5396412726
O  O18  1  0.84970000  0.75400000  0.30320000  1.0 -0.5396412726
O  O19  1  0.10340000  0.74800000  0.76800000  1.0 -0.5396412726
O  O20  1  0.89660000  0.74800000  0.23200000  1.0 -0.5311027493
O  O21  1  0.34020000  0.88790000  0.69380000  1.0 -0.5181018172
O  O22  1  0.65980000  0.88790000  0.30620000  1.0 -0.5181018172
O  O23  1  0.38180000  0.98510000  0.75320000  1.0 -0.5463419491
O  O24  1  0.61820000  0.98510000  0.24680000  1.0 -0.5463419491
O  O25  1  0.39150000  0.90700000  0.59510000  1.0 -0.5694497087
O  O26  1  0.60850000  0.90700000  0.40490000  1.0 -0.5694497087
O  O27  1  0.41240000  0.11000000  0.57060000  1.0 -0.5463419491
O  O28  1  0.58760000  0.11000000  0.42940000  1.0 -0.5463419491
O  O29  1  0.44380000  0.00020000  0.35730000  1.0 -0.5008988637
O  O30  1  0.55620000  0.00020000  0.64270000  1.0 -0.5008988637
O  O31  1  0.48520000  0.12700000  0.40980000  1.0 -0.5311027493
O  O32  1  0.51480000  0.12700000  0.59020000  1.0 -0.5311027493
O  O33  1  0.45960000  0.80290000  0.66990000  1.0 -0.4868747154
O  O34  1  0.54040000  0.80290000  0.33010000  1.0 -0.4868747154
O  O35  1  0.50500000  0.90650000  0.72720000  1.0 -0.5694497087
O  O36  1  0.49500000  0.90650000  0.27280000  1.0 -0.5694497087
O  O37  1  0.48520000  0.35240000  0.65780000  1.0 -0.4208404281
O  O38  1  0.51480000  0.35240000  0.34220000  1.0 -0.4208404281
O  O39  1  0.55130000  0.25560000  0.69900000  1.0 -0.5694497087
O  O40  1  0.44870000  0.25560000  0.30100000  1.0 -0.5694497087
O  O41  1  0.43340000  0.76520000  0.79730000  1.0 -0.5093953569
O  O42  1  0.56660000  0.76520000  0.20270000  1.0 -0.5093953569
O  O43  1  0.50050000  0.67180000  0.84100000  1.0 -0.5093953569
O  O44  1  0.49950000  0.67180000  0.15900000  1.0 -0.5093953569
O  O45  1  0.53110000  0.22450000  0.82280000  1.0 -0.4600836793
O  O46  1  0.46890000  0.22450000  0.17720000  1.0 -0.4600836793
O  O47  1  0.47920000  0.12420000  0.76960000  1.0 -0.5463419491
O  O48  1  0.52080000  0.12420000  0.23040000  1.0 -0.5463419491
O  O49  1  0.60540000  0.10190000  0.89800000  1.0 -0.5181018172
O  O50  1  0.39460000  0.10190000  0.10200000  1.0 -0.5181018172
O  O51  1  0.54380000  0.97700000  0.93050000  1.0 -0.4600836793
O  O52  1  0.45620000  0.97700000  0.06950000  1.0 -0.4600836793
O  O53  1  0.55500000  0.87120000  0.09850000  1.0 -0.4600836793
O  O54  1  0.44500000  0.87120000  0.90150000  1.0 -0.4600836793
O  O55  1  0.57710000  0.02580000  0.14610000  1.0 -0.5694497087
O  O56  1  0.42290000  0.02580000  0.85390000  1.0 -0.5694497087
O  O57  1  0.60020000  0.05040000  0.74010000  1.0 -0.4013392487
O  O58  1  0.39980000  0.05040000  0.25990000  1.0 -0.4013392487
O  O59  1  0.65210000  0.08130000  0.80300000  1.0 -0.5311027493
O  O60  1  0.34790000  0.08130000  0.19700000  1.0 -0.5311027493
O  O61  1  0.84030000  0.89200000  0.80660000  1.0 -0.5181018172
O  O62  1  0.15970000  0.89200000  0.19340000  1.0 -0.5181018172
O  O63  1  0.88230000  0.82700000  0.74250000  1.0 -0.5008988637
O  O64  1  0.11770000  0.82700000  0.25750000  1.0 -0.5008988637
O  O65  1  0.96240000  0.99300000  0.82910000  1.0 -0.4600836793
O  O66  1  0.03760000  0.99300000  0.17090000  1.0 -0.4600836793
O  O67  1  0.00560000  0.90600000  0.76970000  1.0 -0.5311027493
O  O68  1  0.99440000  0.90600000  0.23030000  1.0 -0.5311027493
O  O69  1  0.04080000  0.54000000  0.79880000  1.0 -0.4208404281
O  O70  1  0.95920000  0.54000000  0.20120000  1.0 -0.4208404281
O  O71  1  0.98470000  0.44300000  0.85060000  1.0 -0.5396412726
O  O72  1  0.01530000  0.44300000  0.14940000  1.0 -0.5396412726
O  O73  1  0.87780000  0.88100000  0.90460000  1.0 -0.450197027
O  O74  1  0.12220000  0.88100000  0.09540000  1.0 -0.450197027
O  O75  1  0.88760000  0.69400000  0.92560000  1.0 -0.5093953569
O  O76  1  0.11240000  0.69400000  0.07440000  1.0 -0.5093953569
O  O77  1  0.94430000  0.78300000  0.14680000  1.0 -0.5616214433
O  O78  1  0.05570000  0.78300000  0.85320000  1.0 -0.5616214433
O  O79  1  0.97040000  0.64200000  0.09340000  1.0 -0.5616214433
O  O80  1  0.02960000  0.64200000  0.90660000  1.0 -0.5616214433
O  O81  1  0.88470000  0.01500000  0.38180000  1.0 -0.478986428
O  O82  1  0.11530000  0.01500000  0.61820000  1.0 -0.478986428
O  O83  1  0.97160000  0.12200000  0.43380000  1.0 -0.101617247
O  O84  1  0.02840000  0.12200000  0.56620000  1.0 -0.101617247
O  O85  1  0.03040000  0.87600000  0.67350000  1.0 -0.766747252
O  O86  1  0.96960000  0.87600000  0.32650000  1.0 -0.766747252
O  O87  1  0.44060000  0.09880000  0.67300000  1.0 -0.7932404735
O  O88  1  0.55940000  0.09880000  0.32700000  1.0 -0.7932404735
O  O89  1  0.52600000  0.69400000  0.94080000  1.0 -0.230135736
O  O90  1  0.47400000  0.69400000  0.05920000  1.0 -0.230135736
O  O91  1  0.61770000  0.77700000  0.87630000  1.0 -0.5008988637
O  O92  1  0.38230000  0.77700000  0.12370000  1.0 -0.5008988637
O  O93  1  0.36470000  0.29100000  0.63510000  1.0 -0.2226578005
O  O94  1  0.63530000  0.29100000  0.36490000  1.0 -0.2226578005
O  O95  1  0.45530000  0.35400000  0.56000000  1.0 -0.1585292874
O  O96  1  0.54470000  0.35400000  0.44000000  1.0 -0.1585292874
O  O97  1  0.53380000  0.93070000  0.82580000  1.0 -0.78032972
O  O98  1  0.46620000  0.93070000  0.17420000  1.0 -0.78032972
O  O99  1  0.93900000  0.47200000  0.93960000  1.0 -0.4107260861
O  O100  1  0.06100000  0.47200000  0.06040000  1.0 -0.4107260861
O  O101  1  0.94210000  0.69700000  0.82720000  1.0 -0.8311278083
O  O102  1  0.05790000  0.69700000  0.17280000  1.0 -0.8311278083
