# DDEC6 charges by PACMAN v1.1 (https://github.com/mtap-research/PACMAN-charge/)
data_d1tc04482f2_FSR_pacman
_symmetry_space_group_name_H-M   'P 1'
_cell_length_a   12.19680000
_cell_length_b   17.00260000
_cell_length_c   29.49020000
_cell_angle_alpha   90.00000000
_cell_angle_beta   90.00000000
_cell_angle_gamma   90.00000000
_symmetry_Int_Tables_number   1
_chemical_formula_structural   Zn5H24C42(NO10)2
_chemical_formula_sum   'Zn20 H96 C168 N8 O80'
_cell_volume   6115.59839691
_cell_formula_units_Z   4
loop_
 _symmetry_equiv_pos_site_id
 _symmetry_equiv_pos_as_xyz
  1  'x, y, z'
loop_
 _atom_site_type_symbol
 _atom_site_label
 _atom_site_symmetry_multiplicity
 _atom_site_fract_x
 _atom_site_fract_y
 _atom_site_fract_z
 _atom_site_occupancy
 _atom_site_charge
Zn  Zn1  1  0.49790000  0.65559000  0.12095000  1.0 0.9290765083
Zn  Zn2  1  0.23411000  0.59222000  0.14560000  1.0 0.8398063338
Zn  Zn3  1  0.00210000  0.84441000  0.12095000  1.0 0.9290765083
Zn  Zn4  1  0.26589000  0.90778000  0.14560000  1.0 0.8398063338
Zn  Zn5  1  0.50210000  0.15559000  0.37905000  1.0 0.9290765083
Zn  Zn6  1  0.76589000  0.09222000  0.35440000  1.0 0.8398063338
Zn  Zn7  1  0.99790000  0.34441000  0.37905000  1.0 0.9290765083
Zn  Zn8  1  0.73411000  0.40778000  0.35440000  1.0 0.8398063338
Zn  Zn9  1  0.50210000  0.34441000  0.87905000  1.0 0.9290765083
Zn  Zn10  1  0.76589000  0.40778000  0.85440000  1.0 0.8398063338
Zn  Zn11  1  0.99790000  0.15559000  0.87905000  1.0 0.9290765083
Zn  Zn12  1  0.73411000  0.09222000  0.85440000  1.0 0.8398063338
Zn  Zn13  1  0.49790000  0.84441000  0.62095000  1.0 0.9290765083
Zn  Zn14  1  0.23411000  0.90778000  0.64560000  1.0 0.8398063338
Zn  Zn15  1  0.00210000  0.65559000  0.62095000  1.0 0.9290765083
Zn  Zn16  1  0.26589000  0.59222000  0.64560000  1.0 0.8398063338
Zn  Zn17  1  0.25000000  0.75000000  0.09358000  1.0 1.0021114207
Zn  Zn18  1  0.75000000  0.25000000  0.40642000  1.0 1.0021114207
Zn  Zn19  1  0.75000000  0.25000000  0.90642000  1.0 1.0021114207
Zn  Zn20  1  0.25000000  0.75000000  0.59358000  1.0 1.0021114207
H  H1  1  0.32963000  0.62570000  0.08127000  1.0 0.3212155035
H  H2  1  0.44767000  0.53307000  0.07309000  1.0 0.3212155035
H  H3  1  0.55697000  0.52418000  0.08398000  1.0 0.3212155035
H  H4  1  0.46730000  0.40112000  0.38633000  1.0 0.1085687994
H  H5  1  0.19657000  0.36523000  0.31072000  1.0 0.1085687994
H  H6  1  0.17879000  0.34297000  0.44359000  1.0 0.1085687994
H  H7  1  0.30641000  0.47684000  0.27037000  1.0 0.1085687994
H  H8  1  0.25509000  0.45016000  0.49290000  1.0 0.095767196
H  H9  1  0.65471000  0.36598000  0.25653000  1.0 0.1236682
H  H10  1  0.59937000  0.35078000  0.52989000  1.0 0.1236682
H  H11  1  0.59878000  0.46116000  0.20515000  1.0 0.1085687994
H  H12  1  0.50732000  0.43180000  0.58107000  1.0 0.1085687994
H  H13  1  0.17037000  0.87430000  0.08127000  1.0 0.3212155035
H  H14  1  0.05233000  0.96693000  0.07309000  1.0 0.3212155035
H  H15  1  0.94303000  0.97582000  0.08398000  1.0 0.3212155035
H  H16  1  0.03270000  0.09888000  0.38633000  1.0 0.1085687994
H  H17  1  0.30343000  0.13477000  0.31072000  1.0 0.1085687994
H  H18  1  0.32121000  0.15703000  0.44359000  1.0 0.1085687994
H  H19  1  0.19359000  0.02316000  0.27037000  1.0 0.1085687994
H  H20  1  0.24491000  0.04984000  0.49290000  1.0 0.095767196
H  H21  1  0.84529000  0.13402000  0.25653000  1.0 0.1236682
H  H22  1  0.90063000  0.14922000  0.52989000  1.0 0.1236682
H  H23  1  0.90122000  0.03884000  0.20515000  1.0 0.1085687994
H  H24  1  0.99268000  0.06820000  0.58107000  1.0 0.1085687994
H  H25  1  0.67037000  0.12570000  0.41873000  1.0 0.3212155035
H  H26  1  0.55233000  0.03307000  0.42691000  1.0 0.3212155035
H  H27  1  0.44303000  0.02418000  0.41602000  1.0 0.3212155035
H  H28  1  0.53270000  0.90112000  0.11367000  1.0 0.1085687994
H  H29  1  0.80343000  0.86523000  0.18928000  1.0 0.1085687994
H  H30  1  0.82121000  0.84297000  0.05641000  1.0 0.1085687994
H  H31  1  0.69359000  0.97684000  0.22963000  1.0 0.1085687994
H  H32  1  0.74491000  0.95016000  0.00710000  1.0 0.095767196
H  H33  1  0.34529000  0.86598000  0.24347000  1.0 0.1236682
H  H34  1  0.40063000  0.85078000  0.97011000  1.0 0.1236682
H  H35  1  0.40122000  0.96116000  0.29485000  1.0 0.1085687994
H  H36  1  0.49268000  0.93180000  0.91893000  1.0 0.1085687994
H  H37  1  0.82963000  0.37430000  0.41873000  1.0 0.3212155035
H  H38  1  0.94767000  0.46693000  0.42691000  1.0 0.3212155035
H  H39  1  0.05697000  0.47582000  0.41602000  1.0 0.3212155035
H  H40  1  0.96730000  0.59888000  0.11367000  1.0 0.1085687994
H  H41  1  0.69657000  0.63477000  0.18928000  1.0 0.1085687994
H  H42  1  0.67879000  0.65703000  0.05641000  1.0 0.1085687994
H  H43  1  0.80641000  0.52316000  0.22963000  1.0 0.1085687994
H  H44  1  0.75509000  0.54984000  0.00710000  1.0 0.095767196
H  H45  1  0.15471000  0.63402000  0.24347000  1.0 0.1236682
H  H46  1  0.09937000  0.64922000  0.97011000  1.0 0.1236682
H  H47  1  0.09878000  0.53884000  0.29485000  1.0 0.1085687994
H  H48  1  0.00732000  0.56820000  0.91893000  1.0 0.1085687994
H  H49  1  0.67037000  0.37430000  0.91873000  1.0 0.3212155035
H  H50  1  0.55233000  0.46693000  0.92691000  1.0 0.3212155035
H  H51  1  0.44303000  0.47582000  0.91602000  1.0 0.3212155035
H  H52  1  0.53270000  0.59888000  0.61367000  1.0 0.1085687994
H  H53  1  0.80343000  0.63477000  0.68928000  1.0 0.1085687994
H  H54  1  0.82121000  0.65703000  0.55641000  1.0 0.1085687994
H  H55  1  0.69359000  0.52316000  0.72963000  1.0 0.1085687994
H  H56  1  0.74491000  0.54984000  0.50710000  1.0 0.095767196
H  H57  1  0.34529000  0.63402000  0.74347000  1.0 0.1236682
H  H58  1  0.40063000  0.64922000  0.47011000  1.0 0.1236682
H  H59  1  0.40122000  0.53884000  0.79485000  1.0 0.1085687994
H  H60  1  0.49268000  0.56820000  0.41893000  1.0 0.1085687994
H  H61  1  0.82963000  0.12570000  0.91873000  1.0 0.3212155035
H  H62  1  0.94767000  0.03307000  0.92691000  1.0 0.3212155035
H  H63  1  0.05697000  0.02418000  0.91602000  1.0 0.3212155035
H  H64  1  0.96730000  0.90112000  0.61367000  1.0 0.1085687994
H  H65  1  0.69657000  0.86523000  0.68928000  1.0 0.1085687994
H  H66  1  0.67879000  0.84297000  0.55641000  1.0 0.1085687994
H  H67  1  0.80641000  0.97684000  0.72963000  1.0 0.1085687994
H  H68  1  0.75509000  0.95016000  0.50710000  1.0 0.095767196
H  H69  1  0.15471000  0.86598000  0.74347000  1.0 0.1236682
H  H70  1  0.09937000  0.85078000  0.47011000  1.0 0.1236682
H  H71  1  0.09878000  0.96116000  0.79485000  1.0 0.1085687994
H  H72  1  0.00732000  0.93180000  0.41893000  1.0 0.1085687994
H  H73  1  0.32963000  0.87430000  0.58127000  1.0 0.3212155035
H  H74  1  0.44767000  0.96693000  0.57309000  1.0 0.3212155035
H  H75  1  0.55697000  0.97582000  0.58398000  1.0 0.3212155035
H  H76  1  0.46730000  0.09888000  0.88633000  1.0 0.1085687994
H  H77  1  0.19657000  0.13477000  0.81072000  1.0 0.1085687994
H  H78  1  0.17879000  0.15703000  0.94359000  1.0 0.1085687994
H  H79  1  0.30641000  0.02316000  0.77037000  1.0 0.1085687994
H  H80  1  0.25509000  0.04984000  0.99290000  1.0 0.095767196
H  H81  1  0.65471000  0.13402000  0.75653000  1.0 0.1236682
H  H82  1  0.59937000  0.14922000  0.02989000  1.0 0.1236682
H  H83  1  0.59878000  0.03884000  0.70515000  1.0 0.1085687994
H  H84  1  0.50732000  0.06820000  0.08107000  1.0 0.1085687994
H  H85  1  0.17037000  0.62570000  0.58127000  1.0 0.3212155035
H  H86  1  0.05233000  0.53307000  0.57309000  1.0 0.3212155035
H  H87  1  0.94303000  0.52418000  0.58398000  1.0 0.3212155035
H  H88  1  0.03270000  0.40112000  0.88633000  1.0 0.1085687994
H  H89  1  0.30343000  0.36523000  0.81072000  1.0 0.1085687994
H  H90  1  0.32121000  0.34297000  0.94359000  1.0 0.1085687994
H  H91  1  0.19359000  0.47684000  0.77037000  1.0 0.1085687994
H  H92  1  0.24491000  0.45016000  0.99290000  1.0 0.095767196
H  H93  1  0.84529000  0.36598000  0.75653000  1.0 0.1236682
H  H94  1  0.90063000  0.35078000  0.02989000  1.0 0.1236682
H  H95  1  0.90122000  0.46116000  0.70515000  1.0 0.1085687994
H  H96  1  0.99268000  0.43180000  0.08107000  1.0 0.1085687994
C  C1  1  0.55505000  0.30059000  0.32561000  1.0 0.5910732752
C  C2  1  0.40979000  0.53653000  0.19820000  1.0 0.5834062851
C  C3  1  0.33236000  0.37265000  0.42277000  1.0 0.0413980429
C  C4  1  0.39198000  0.38758000  0.38381000  1.0 -0.1582783454
C  C5  1  0.54196000  0.29328000  0.45047000  1.0 0.5910732752
C  C6  1  0.23175000  0.36686000  0.33945000  1.0 0.0324861066
C  C7  1  0.34440000  0.38326000  0.34109000  1.0 0.0413980429
C  C8  1  0.37963000  0.38209000  0.46857000  1.0 0.0413980429
C  C9  1  0.41133000  0.39976000  0.30021000  1.0 0.0454603663
C  C10  1  0.22110000  0.35470000  0.41740000  1.0 0.0095052339
C  C11  1  0.37761000  0.45454000  0.26807000  1.0 -0.1582783454
C  C12  1  0.51623000  0.36528000  0.29521000  1.0 -0.0802706101
C  C13  1  0.48208000  0.35079000  0.48075000  1.0 -0.0440591651
C  C14  1  0.32499000  0.42915000  0.50034000  1.0 -0.2451977127
C  C15  1  0.58410000  0.38898000  0.25956000  1.0 -0.12973459
C  C16  1  0.44604000  0.47746000  0.23254000  1.0 -0.0258975368
C  C17  1  0.36990000  0.44572000  0.54201000  1.0 -0.0258975368
C  C18  1  0.52880000  0.37047000  0.52240000  1.0 -0.12973459
C  C19  1  0.55090000  0.44486000  0.22876000  1.0 -0.1084413625
C  C20  1  0.47420000  0.41811000  0.55300000  1.0 -0.1739884698
C  C21  1  0.94495000  0.19941000  0.32561000  1.0 0.5910732752
C  C22  1  0.09021000  0.96347000  0.19820000  1.0 0.5834062851
C  C23  1  0.16764000  0.12735000  0.42277000  1.0 0.0413980429
C  C24  1  0.10802000  0.11242000  0.38381000  1.0 -0.1582783454
C  C25  1  0.95804000  0.20672000  0.45047000  1.0 0.5910732752
C  C26  1  0.26825000  0.13314000  0.33945000  1.0 0.0324861066
C  C27  1  0.15560000  0.11674000  0.34109000  1.0 0.0413980429
C  C28  1  0.12037000  0.11791000  0.46857000  1.0 0.0413980429
C  C29  1  0.08867000  0.10024000  0.30021000  1.0 0.0454603663
C  C30  1  0.27890000  0.14530000  0.41740000  1.0 0.0095052339
C  C31  1  0.12239000  0.04546000  0.26807000  1.0 -0.1582783454
C  C32  1  0.98377000  0.13472000  0.29521000  1.0 -0.0802706101
C  C33  1  0.01792000  0.14921000  0.48075000  1.0 -0.0440591651
C  C34  1  0.17501000  0.07085000  0.50034000  1.0 -0.2451977127
C  C35  1  0.91590000  0.11102000  0.25956000  1.0 -0.12973459
C  C36  1  0.05396000  0.02254000  0.23254000  1.0 -0.0258975368
C  C37  1  0.13010000  0.05428000  0.54201000  1.0 -0.0258975368
C  C38  1  0.97120000  0.12953000  0.52240000  1.0 -0.12973459
C  C39  1  0.94910000  0.05514000  0.22876000  1.0 -0.1084413625
C  C40  1  0.02580000  0.08189000  0.55300000  1.0 -0.1739884698
C  C41  1  0.44495000  0.80059000  0.17439000  1.0 0.5910732752
C  C42  1  0.59021000  0.03653000  0.30180000  1.0 0.5834062851
C  C43  1  0.66764000  0.87265000  0.07723000  1.0 0.0413980429
C  C44  1  0.60802000  0.88758000  0.11619000  1.0 -0.1582783454
C  C45  1  0.45804000  0.79328000  0.04953000  1.0 0.5910732752
C  C46  1  0.76825000  0.86686000  0.16055000  1.0 0.0324861066
C  C47  1  0.65560000  0.88326000  0.15891000  1.0 0.0324861066
C  C48  1  0.62037000  0.88209000  0.03143000  1.0 0.0413980429
C  C49  1  0.58867000  0.89976000  0.19979000  1.0 0.0454603663
C  C50  1  0.77890000  0.85470000  0.08260000  1.0 0.0095052339
C  C51  1  0.62239000  0.95454000  0.23193000  1.0 -0.1582783454
C  C52  1  0.48377000  0.86528000  0.20479000  1.0 -0.0802706101
C  C53  1  0.51792000  0.85079000  0.01925000  1.0 -0.0440591651
C  C54  1  0.67501000  0.92915000  0.99966000  1.0 -0.2439411822
C  C55  1  0.41590000  0.88898000  0.24044000  1.0 -0.12973459
C  C56  1  0.55396000  0.97746000  0.26746000  1.0 -0.0258975368
C  C57  1  0.63010000  0.94572000  0.95799000  1.0 -0.0245790587
C  C58  1  0.47120000  0.87047000  0.97760000  1.0 -0.12973459
C  C59  1  0.44910000  0.94486000  0.27124000  1.0 -0.1084413625
C  C60  1  0.52580000  0.91811000  0.94700000  1.0 -0.175740892
C  C61  1  0.05505000  0.69941000  0.17439000  1.0 0.5910732752
C  C62  1  0.90979000  0.46347000  0.30180000  1.0 0.5834062851
C  C63  1  0.83236000  0.62735000  0.07723000  1.0 0.0413980429
C  C64  1  0.89198000  0.61242000  0.11619000  1.0 -0.1582783454
C  C65  1  0.04196000  0.70672000  0.04953000  1.0 0.5910732752
C  C66  1  0.73175000  0.63314000  0.16055000  1.0 0.0324861066
C  C67  1  0.84440000  0.61674000  0.15891000  1.0 0.0324861066
C  C68  1  0.87963000  0.61791000  0.03143000  1.0 0.0413980429
C  C69  1  0.91133000  0.60024000  0.19979000  1.0 0.0454603663
C  C70  1  0.72110000  0.64530000  0.08260000  1.0 0.0095052339
C  C71  1  0.87761000  0.54546000  0.23193000  1.0 -0.1582783454
C  C72  1  0.01623000  0.63472000  0.20479000  1.0 -0.0802706101
C  C73  1  0.98208000  0.64921000  0.01925000  1.0 -0.0440591651
C  C74  1  0.82499000  0.57085000  0.99966000  1.0 -0.2439411822
C  C75  1  0.08410000  0.61102000  0.24044000  1.0 -0.12973459
C  C76  1  0.94604000  0.52254000  0.26746000  1.0 -0.0258975368
C  C77  1  0.86990000  0.55428000  0.95799000  1.0 -0.0245790587
C  C78  1  0.02880000  0.62953000  0.97760000  1.0 -0.12973459
C  C79  1  0.05090000  0.55514000  0.27124000  1.0 -0.1084413625
C  C80  1  0.97420000  0.58189000  0.94700000  1.0 -0.175740892
C  C81  1  0.44495000  0.69941000  0.67439000  1.0 0.5910732752
C  C82  1  0.59021000  0.46347000  0.80180000  1.0 0.5834062851
C  C83  1  0.66764000  0.62735000  0.57723000  1.0 0.0413980429
C  C84  1  0.60802000  0.61242000  0.61619000  1.0 -0.1582783454
C  C85  1  0.45804000  0.70672000  0.54953000  1.0 0.5910732752
C  C86  1  0.76825000  0.63314000  0.66055000  1.0 0.0324861066
C  C87  1  0.65560000  0.61674000  0.65891000  1.0 0.0324861066
C  C88  1  0.62037000  0.61791000  0.53143000  1.0 0.0413980429
C  C89  1  0.58867000  0.60024000  0.69979000  1.0 0.0454603663
C  C90  1  0.77890000  0.64530000  0.58260000  1.0 0.0095052339
C  C91  1  0.62239000  0.54546000  0.73193000  1.0 -0.1582783454
C  C92  1  0.48377000  0.63472000  0.70479000  1.0 -0.0802706101
C  C93  1  0.51792000  0.64921000  0.51925000  1.0 -0.0440591651
C  C94  1  0.67501000  0.57085000  0.49966000  1.0 -0.2439411822
C  C95  1  0.41590000  0.61102000  0.74044000  1.0 -0.12973459
C  C96  1  0.55396000  0.52254000  0.76746000  1.0 -0.0258975368
C  C97  1  0.63010000  0.55428000  0.45799000  1.0 -0.0258975368
C  C98  1  0.47120000  0.62953000  0.47760000  1.0 -0.12973459
C  C99  1  0.44910000  0.55514000  0.77124000  1.0 -0.1084413625
C  C100  1  0.52580000  0.58189000  0.44700000  1.0 -0.1739884698
C  C101  1  0.05505000  0.80059000  0.67439000  1.0 0.5910732752
C  C102  1  0.90979000  0.03653000  0.80180000  1.0 0.5834062851
C  C103  1  0.83236000  0.87265000  0.57723000  1.0 0.0413980429
C  C104  1  0.89198000  0.88758000  0.61619000  1.0 -0.1582783454
C  C105  1  0.04196000  0.79328000  0.54953000  1.0 0.5910732752
C  C106  1  0.73175000  0.86686000  0.66055000  1.0 0.0324861066
C  C107  1  0.84440000  0.88326000  0.65891000  1.0 0.0324861066
C  C108  1  0.87963000  0.88209000  0.53143000  1.0 0.0413980429
C  C109  1  0.91133000  0.89976000  0.69979000  1.0 0.0454603663
C  C110  1  0.72110000  0.85470000  0.58260000  1.0 0.0095052339
C  C111  1  0.87761000  0.95454000  0.73193000  1.0 -0.1582783454
C  C112  1  0.01623000  0.86528000  0.70479000  1.0 -0.0802706101
C  C113  1  0.98208000  0.85079000  0.51925000  1.0 -0.0440591651
C  C114  1  0.82499000  0.92915000  0.49966000  1.0 -0.2439411822
C  C115  1  0.08410000  0.88898000  0.74044000  1.0 -0.12973459
C  C116  1  0.94604000  0.97746000  0.76746000  1.0 -0.0258975368
C  C117  1  0.86990000  0.94572000  0.45799000  1.0 -0.0258975368
C  C118  1  0.02880000  0.87047000  0.47760000  1.0 -0.12973459
C  C119  1  0.05090000  0.94486000  0.77124000  1.0 -0.1084413625
C  C120  1  0.97420000  0.91811000  0.44700000  1.0 -0.175740892
C  C121  1  0.55505000  0.19941000  0.82561000  1.0 0.5910732752
C  C122  1  0.40979000  0.96347000  0.69820000  1.0 0.5834062851
C  C123  1  0.33236000  0.12735000  0.92277000  1.0 0.0413980429
C  C124  1  0.39198000  0.11242000  0.88381000  1.0 -0.1582783454
C  C125  1  0.54196000  0.20672000  0.95047000  1.0 0.5910732752
C  C126  1  0.23175000  0.13314000  0.83945000  1.0 0.0324861066
C  C127  1  0.34440000  0.11674000  0.84109000  1.0 0.0413980429
C  C128  1  0.37963000  0.11791000  0.96857000  1.0 0.0413980429
C  C129  1  0.41133000  0.10024000  0.80021000  1.0 0.0454603663
C  C130  1  0.22110000  0.14530000  0.91740000  1.0 0.0095052339
C  C131  1  0.37761000  0.04546000  0.76807000  1.0 -0.1582783454
C  C132  1  0.51623000  0.13472000  0.79521000  1.0 -0.0802706101
C  C133  1  0.48208000  0.14921000  0.98075000  1.0 -0.0440591651
C  C134  1  0.32499000  0.07085000  0.00034000  1.0 -0.2439411822
C  C135  1  0.58410000  0.11102000  0.75956000  1.0 -0.12973459
C  C136  1  0.44604000  0.02254000  0.73254000  1.0 -0.0258975368
C  C137  1  0.36990000  0.05428000  0.04201000  1.0 -0.0258975368
C  C138  1  0.52880000  0.12953000  0.02240000  1.0 -0.12973459
C  C139  1  0.55090000  0.05514000  0.72876000  1.0 -0.1084413625
C  C140  1  0.47420000  0.08189000  0.05300000  1.0 -0.1739884698
C  C141  1  0.94495000  0.30059000  0.82561000  1.0 0.5910732752
C  C142  1  0.09021000  0.53653000  0.69820000  1.0 0.5834062851
C  C143  1  0.16764000  0.37265000  0.92277000  1.0 0.0413980429
C  C144  1  0.10802000  0.38758000  0.88381000  1.0 -0.1582783454
C  C145  1  0.95804000  0.29328000  0.95047000  1.0 0.5910732752
C  C146  1  0.26825000  0.36686000  0.83945000  1.0 0.0324861066
C  C147  1  0.15560000  0.38326000  0.84109000  1.0 0.0413980429
C  C148  1  0.12037000  0.38209000  0.96857000  1.0 0.0413980429
C  C149  1  0.08867000  0.39976000  0.80021000  1.0 0.0454603663
C  C150  1  0.27890000  0.35470000  0.91740000  1.0 0.0095052339
C  C151  1  0.12239000  0.45454000  0.76807000  1.0 -0.1582783454
C  C152  1  0.98377000  0.36528000  0.79521000  1.0 -0.0802706101
C  C153  1  0.01792000  0.35079000  0.98075000  1.0 -0.0440591651
C  C154  1  0.17501000  0.42915000  0.00034000  1.0 -0.2439411822
C  C155  1  0.91590000  0.38898000  0.75956000  1.0 -0.12973459
C  C156  1  0.05396000  0.47746000  0.73254000  1.0 -0.0258975368
C  C157  1  0.13010000  0.44572000  0.04201000  1.0 -0.0258975368
C  C158  1  0.97120000  0.37047000  0.02240000  1.0 -0.12973459
C  C159  1  0.94910000  0.44486000  0.72876000  1.0 -0.1084413625
C  C160  1  0.02580000  0.41811000  0.05300000  1.0 -0.1739884698
C  C161  1  0.30660000  0.48870000  0.57980000  0.52 0.3880902535
C  C162  1  0.19340000  0.01130000  0.57980000  0.52 0.3880902535
C  C163  1  0.69340000  0.98870000  0.92020000  0.52 0.3880902535
C  C164  1  0.80660000  0.51130000  0.92020000  0.52 0.3880902535
C  C165  1  0.69340000  0.51130000  0.42020000  0.52 0.3880902535
C  C166  1  0.80660000  0.98870000  0.42020000  0.52 0.3880902535
C  C167  1  0.30660000  0.01130000  0.07980000  0.52 0.3880902535
C  C168  1  0.19340000  0.48870000  0.07980000  0.52 0.3880902535
C  C169  1  0.30640000  0.50310000  0.56940000  0.48 0.3716594099
C  C170  1  0.19360000  0.99690000  0.56940000  0.48 0.3716594099
C  C171  1  0.69360000  0.00310000  0.93060000  0.48 0.3716594099
C  C172  1  0.80640000  0.49690000  0.93060000  0.48 0.3716594099
C  C173  1  0.69360000  0.49690000  0.43060000  0.48 0.3716594099
C  C174  1  0.80640000  0.00310000  0.43060000  0.48 0.3716594099
C  C175  1  0.30640000  0.99690000  0.06940000  0.48 0.3716594099
C  C176  1  0.19360000  0.50310000  0.06940000  0.48 0.3716594099
N  N1  1  0.17175000  0.35340000  0.37663000  1.0 -0.2330615756
N  N2  1  0.32825000  0.14660000  0.37663000  1.0 -0.2330615756
N  N3  1  0.82825000  0.85340000  0.12337000  1.0 -0.2330615756
N  N4  1  0.67175000  0.64660000  0.12337000  1.0 -0.2330615756
N  N5  1  0.82825000  0.64660000  0.62337000  1.0 -0.2330615756
N  N6  1  0.67175000  0.85340000  0.62337000  1.0 -0.2330615756
N  N7  1  0.17175000  0.14660000  0.87663000  1.0 -0.2330615756
N  N8  1  0.32825000  0.35340000  0.87663000  1.0 -0.2330615756
O  O1  1  0.33324000  0.65239000  0.10636000  1.0 -0.8396909082
O  O2  1  0.64860000  0.30956000  0.34476000  1.0 -0.5873532736
O  O3  1  0.48577000  0.24349000  0.43009000  1.0 -0.5525210344
O  O4  1  0.64556000  0.30036000  0.45011000  1.0 -0.5815641724
O  O5  1  0.47848000  0.56862000  0.17371000  1.0 -0.5726932281
O  O6  1  0.49731000  0.24077000  0.32906000  1.0 -0.5238137835
O  O7  1  0.30584000  0.54810000  0.19716000  1.0 -0.5568666154
O  O8  1  0.35554000  0.52152000  0.60939000  1.0 -0.3800380372
O  O9  1  0.50982000  0.55856000  0.07370000  1.0 -0.6911590093
O  O10  1  0.16676000  0.84761000  0.10636000  1.0 -0.8396909082
O  O11  1  0.85140000  0.19044000  0.34476000  1.0 -0.5873532736
O  O12  1  0.01423000  0.25651000  0.43009000  1.0 -0.5525210344
O  O13  1  0.85444000  0.19964000  0.45011000  1.0 -0.5815641724
O  O14  1  0.02152000  0.93138000  0.17371000  1.0 -0.5726932281
O  O15  1  0.00269000  0.25923000  0.32906000  1.0 -0.5238137835
O  O16  1  0.19416000  0.95190000  0.19716000  1.0 -0.5568666154
O  O17  1  0.14446000  0.97848000  0.60939000  1.0 -0.3800380372
O  O18  1  0.99018000  0.94144000  0.07370000  1.0 -0.6911590093
O  O19  1  0.66676000  0.15239000  0.39364000  1.0 -0.8396909082
O  O20  1  0.35140000  0.80956000  0.15524000  1.0 -0.5873532736
O  O21  1  0.51423000  0.74349000  0.06991000  1.0 -0.5525210344
O  O22  1  0.35444000  0.80036000  0.04989000  1.0 -0.5815641724
O  O23  1  0.52152000  0.06862000  0.32629000  1.0 -0.5726932281
O  O24  1  0.50269000  0.74077000  0.17094000  1.0 -0.5238137835
O  O25  1  0.69416000  0.04810000  0.30284000  1.0 -0.5568666154
O  O26  1  0.64446000  0.02152000  0.89061000  1.0 -0.3800380372
O  O27  1  0.49018000  0.05856000  0.42630000  1.0 -0.6911590093
O  O28  1  0.83324000  0.34761000  0.39364000  1.0 -0.8396909082
O  O29  1  0.14860000  0.69044000  0.15524000  1.0 -0.5873532736
O  O30  1  0.98577000  0.75651000  0.06991000  1.0 -0.5525210344
O  O31  1  0.14556000  0.69964000  0.04989000  1.0 -0.5815641724
O  O32  1  0.97848000  0.43138000  0.32629000  1.0 -0.5726932281
O  O33  1  0.99731000  0.75923000  0.17094000  1.0 -0.5238137835
O  O34  1  0.80584000  0.45190000  0.30284000  1.0 -0.5568666154
O  O35  1  0.85554000  0.47848000  0.89061000  1.0 -0.3800380372
O  O36  1  0.00982000  0.44144000  0.42630000  1.0 -0.6911590093
O  O37  1  0.66676000  0.34761000  0.89364000  1.0 -0.8396909082
O  O38  1  0.35140000  0.69044000  0.65524000  1.0 -0.5873532736
O  O39  1  0.51423000  0.75651000  0.56991000  1.0 -0.5525210344
O  O40  1  0.35444000  0.69964000  0.54989000  1.0 -0.5815641724
O  O41  1  0.52152000  0.43138000  0.82629000  1.0 -0.5726932281
O  O42  1  0.50269000  0.75923000  0.67094000  1.0 -0.5238137835
O  O43  1  0.69416000  0.45190000  0.80284000  1.0 -0.5568666154
O  O44  1  0.64446000  0.47848000  0.39061000  1.0 -0.3800380372
O  O45  1  0.49018000  0.44144000  0.92630000  1.0 -0.6911590093
O  O46  1  0.83324000  0.15239000  0.89364000  1.0 -0.8396909082
O  O47  1  0.14860000  0.80956000  0.65524000  1.0 -0.5873532736
O  O48  1  0.98577000  0.74349000  0.56991000  1.0 -0.5525210344
O  O49  1  0.14556000  0.80036000  0.54989000  1.0 -0.5815641724
O  O50  1  0.97848000  0.06862000  0.82629000  1.0 -0.5726932281
O  O51  1  0.99731000  0.74077000  0.67094000  1.0 -0.5238137835
O  O52  1  0.80584000  0.04810000  0.80284000  1.0 -0.5568666154
O  O53  1  0.85554000  0.02152000  0.39061000  1.0 -0.3800380372
O  O54  1  0.00982000  0.05856000  0.92630000  1.0 -0.6911590093
O  O55  1  0.33324000  0.84761000  0.60636000  1.0 -0.8396909082
O  O56  1  0.64860000  0.19044000  0.84476000  1.0 -0.5873532736
O  O57  1  0.48577000  0.25651000  0.93009000  1.0 -0.5525210344
O  O58  1  0.64556000  0.19964000  0.95011000  1.0 -0.5815641724
O  O59  1  0.47848000  0.93138000  0.67371000  1.0 -0.5726932281
O  O60  1  0.49731000  0.25923000  0.82906000  1.0 -0.5238137835
O  O61  1  0.30584000  0.95190000  0.69716000  1.0 -0.5568666154
O  O62  1  0.35554000  0.97848000  0.10939000  1.0 -0.3800380372
O  O63  1  0.50982000  0.94144000  0.57370000  1.0 -0.6911590093
O  O64  1  0.16676000  0.65239000  0.60636000  1.0 -0.8396909082
O  O65  1  0.85140000  0.30956000  0.84476000  1.0 -0.5873532736
O  O66  1  0.01423000  0.24349000  0.93009000  1.0 -0.5525210344
O  O67  1  0.85444000  0.30036000  0.95011000  1.0 -0.5815641724
O  O68  1  0.02152000  0.56862000  0.67371000  1.0 -0.5726932281
O  O69  1  0.00269000  0.24077000  0.82906000  1.0 -0.5238137835
O  O70  1  0.19416000  0.54810000  0.69716000  1.0 -0.5568666154
O  O71  1  0.14446000  0.52152000  0.10939000  1.0 -0.3800380372
O  O72  1  0.99018000  0.55856000  0.57370000  1.0 -0.6911590093
O  O73  1  0.21120000  0.52300000  0.55910000  0.48 -0.0535876156
O  O74  1  0.28880000  0.97700000  0.55910000  0.48 -0.0535876156
O  O75  1  0.78880000  0.02300000  0.94090000  0.48 -0.0552937494
O  O76  1  0.71120000  0.47700000  0.94090000  0.48 -0.0535876156
O  O77  1  0.78880000  0.47700000  0.44090000  0.48 -0.0552937494
O  O78  1  0.71120000  0.02300000  0.44090000  0.48 -0.0552937494
O  O79  1  0.21120000  0.97700000  0.05910000  0.48 -0.0535876156
O  O80  1  0.28880000  0.52300000  0.05910000  0.48 -0.0535876156
O  O81  1  0.20680000  0.49500000  0.57370000  0.52 -0.1084413625
O  O82  1  0.29320000  0.00500000  0.57370000  0.52 -0.1084413625
O  O83  1  0.79320000  0.99500000  0.92630000  0.52 -0.1084413625
O  O84  1  0.70680000  0.50500000  0.92630000  0.52 -0.1084413625
O  O85  1  0.79320000  0.50500000  0.42630000  0.52 -0.1084413625
O  O86  1  0.70680000  0.99500000  0.42630000  0.52 -0.1084413625
O  O87  1  0.20680000  0.00500000  0.07370000  0.52 -0.1084413625
O  O88  1  0.29320000  0.49500000  0.07370000  0.52 -0.1084413625
