# generated by PACMAN-DDEC6 charge (https://github.com/sxm13/PACMAN/)
data_structure
_chemical_formula_sum              "Zn4 H104 C122 N32 O20"
_cell_length_a       8.2598
_cell_length_b       13.977
_cell_length_c       30.125
_cell_angle_alpha    90
_cell_angle_beta     90
_cell_angle_gamma    90

_symmetry_space_group_name_H-M    "P 1"
_symmetry_Int_Tables_number       1

loop_
  _symmetry_equiv_pos_as_xyz
  'x, y, z'

loop_
  _atom_site_type_symbol
  _atom_site_label
  _atom_site_symmetry_multiplicity
  _atom_site_fract_x
  _atom_site_fract_y
  _atom_site_fract_z
  _atom_site_occupancy
  _atom_site_charge
Zn  Zn1       1.0  0.02328  0.87396  0.35873  1.0000 0.6730086057
Zn  Zn2       1.0  0.97672  0.12604  0.85873  1.0000 0.6730086057
Zn  Zn3       1.0  0.97672  0.87396  0.14127  1.0000 0.6730086057
Zn  Zn4       1.0  0.02328  0.12604  0.64127  1.0000 0.6730086057
H   H1        1.0  0.16770  0.07900  0.39790  1.0000 0.1203878486
H   H2        1.0  0.25300  0.20820  0.34870  1.0000 0.1275158317
H   H3        1.0  0.11520  0.99120  0.27560  1.0000 0.1107325205
H   H4        1.0  0.97100  0.80310  0.45560  1.0000 0.1203878486
H   H5        1.0  0.70520  0.98600  0.39100  1.0000 0.1203878486
H   H6        1.0  0.57110  0.95630  0.46190  1.0000 0.1203878486
H   H7        1.0  0.58310  0.76530  0.39570  1.0000 0.1203878486
H   H8        1.0  0.38710  0.89480  0.39460  1.0000 0.1107325205
H   H9        1.0  0.15880  0.66220  0.35730  1.0000 0.1275158317
H   H10       1.0  0.17400  0.29820  0.27830  1.0000 0.1275158317
H   H11       1.0  0.23820  0.37760  0.21350  1.0000 0.1386774256
H   H12       1.0  0.37570  0.13030  0.15870  1.0000 0.1203878486
H   H13       1.0  0.31020  0.04950  0.22370  1.0000 0.1275158317
H   H14       1.0  0.55770  0.39480  0.19100  1.0000 0.1203878486
H   H15       1.0  0.66650  0.54840  0.18430  1.0000 0.1275158317
H   H16       1.0  0.38560  0.59520  0.07770  1.0000 0.1275158317
H   H17       1.0  0.28020  0.44230  0.08360  1.0000 0.1275158317
H   H18       1.0  0.55250  0.26880  0.07640  1.0000 0.1275158317
H   H19       1.0  0.50870  0.20040  0.00780  1.0000 0.1275158317
H   H20       1.0  0.04660  0.15300  0.04200  1.0000 0.1275158317
H   H21       1.0  0.08660  0.23250  0.10780  1.0000 0.1203878486
H   H22       1.0  0.82200  0.70290  0.24710  1.0000 0.1275158317
H   H23       1.0  0.67750  0.69230  0.27980  1.0000 0.1275158317
H   H24       1.0  0.70890  0.83800  0.21860  1.0000 0.080982672
H   H25       1.0  0.60360  0.74660  0.21180  1.0000 0.0892308484
H   H26       1.0  0.83230  0.92100  0.89790  1.0000 0.1203878486
H   H27       1.0  0.74700  0.79180  0.84870  1.0000 0.1275158317
H   H28       1.0  0.88480  0.00880  0.77560  1.0000 0.1107325205
H   H29       1.0  0.02900  0.19690  0.95560  1.0000 0.1203878486
H   H30       1.0  0.29480  0.01400  0.89100  1.0000 0.1203878486
H   H31       1.0  0.42890  0.04370  0.96190  1.0000 0.1203878486
H   H32       1.0  0.41690  0.23470  0.89570  1.0000 0.1203878486
H   H33       1.0  0.61290  0.10520  0.89460  1.0000 0.1107325205
H   H34       1.0  0.84120  0.33780  0.85730  1.0000 0.1275158317
H   H35       1.0  0.82600  0.70180  0.77830  1.0000 0.1275158317
H   H36       1.0  0.76180  0.62240  0.71350  1.0000 0.1386774256
H   H37       1.0  0.62430  0.86970  0.65870  1.0000 0.1203878486
H   H38       1.0  0.68980  0.95050  0.72370  1.0000 0.1275158317
H   H39       1.0  0.44230  0.60520  0.69100  1.0000 0.1203878486
H   H40       1.0  0.33350  0.45160  0.68430  1.0000 0.1275158317
H   H41       1.0  0.61440  0.40480  0.57770  1.0000 0.1275158317
H   H42       1.0  0.71980  0.55770  0.58360  1.0000 0.1275158317
H   H43       1.0  0.44750  0.73120  0.57640  1.0000 0.1275158317
H   H44       1.0  0.49130  0.79960  0.50780  1.0000 0.1275158317
H   H45       1.0  0.95340  0.84700  0.54200  1.0000 0.1275158317
H   H46       1.0  0.91340  0.76750  0.60780  1.0000 0.1203878486
H   H47       1.0  0.17800  0.29710  0.74710  1.0000 0.1275158317
H   H48       1.0  0.32250  0.30770  0.77980  1.0000 0.1275158317
H   H49       1.0  0.29110  0.16200  0.71860  1.0000 0.080982672
H   H50       1.0  0.39640  0.25340  0.71180  1.0000 0.0892308484
H   H51       1.0  0.83230  0.07900  0.10210  1.0000 0.1203878486
H   H52       1.0  0.74700  0.20820  0.15130  1.0000 0.1275158317
H   H53       1.0  0.88480  0.99120  0.22440  1.0000 0.1107325205
H   H54       1.0  0.02900  0.80310  0.04440  1.0000 0.1203878486
H   H55       1.0  0.29480  0.98600  0.10900  1.0000 0.1203878486
H   H56       1.0  0.42890  0.95630  0.03810  1.0000 0.1203878486
H   H57       1.0  0.41690  0.76530  0.10430  1.0000 0.1203878486
H   H58       1.0  0.61290  0.89480  0.10540  1.0000 0.1107325205
H   H59       1.0  0.84120  0.66220  0.14270  1.0000 0.1275158317
H   H60       1.0  0.82600  0.29820  0.22170  1.0000 0.1275158317
H   H61       1.0  0.76180  0.37760  0.28650  1.0000 0.1386774256
H   H62       1.0  0.62430  0.13030  0.34130  1.0000 0.1203878486
H   H63       1.0  0.68980  0.04950  0.27630  1.0000 0.1275158317
H   H64       1.0  0.44230  0.39480  0.30900  1.0000 0.1203878486
H   H65       1.0  0.33350  0.54840  0.31570  1.0000 0.1275158317
H   H66       1.0  0.61440  0.59520  0.42230  1.0000 0.1275158317
H   H67       1.0  0.71980  0.44230  0.41640  1.0000 0.1275158317
H   H68       1.0  0.44750  0.26880  0.42360  1.0000 0.1275158317
H   H69       1.0  0.49130  0.20040  0.49220  1.0000 0.1275158317
H   H70       1.0  0.95340  0.15300  0.45800  1.0000 0.1275158317
H   H71       1.0  0.91340  0.23250  0.39220  1.0000 0.1203878486
H   H72       1.0  0.17800  0.70290  0.25290  1.0000 0.1275158317
H   H73       1.0  0.32250  0.69230  0.22020  1.0000 0.1275158317
H   H74       1.0  0.29110  0.83800  0.28140  1.0000 0.080982672
H   H75       1.0  0.39640  0.74660  0.28820  1.0000 0.0892308484
H   H76       1.0  0.16770  0.92100  0.60210  1.0000 0.1203878486
H   H77       1.0  0.25300  0.79180  0.65130  1.0000 0.1275158317
H   H78       1.0  0.11520  0.00880  0.72440  1.0000 0.1107325205
H   H79       1.0  0.97100  0.19690  0.54440  1.0000 0.1203878486
H   H80       1.0  0.70520  0.01400  0.60900  1.0000 0.1203878486
H   H81       1.0  0.57110  0.04370  0.53810  1.0000 0.1203878486
H   H82       1.0  0.58310  0.23470  0.60430  1.0000 0.1203878486
H   H83       1.0  0.38710  0.10520  0.60540  1.0000 0.1107325205
H   H84       1.0  0.15880  0.33780  0.64270  1.0000 0.1275158317
H   H85       1.0  0.17400  0.70180  0.72170  1.0000 0.1275158317
H   H86       1.0  0.23820  0.62240  0.78650  1.0000 0.1386774256
H   H87       1.0  0.37570  0.86970  0.84130  1.0000 0.1203878486
H   H88       1.0  0.31020  0.95050  0.77630  1.0000 0.1275158317
H   H89       1.0  0.55770  0.60520  0.80900  1.0000 0.1203878486
H   H90       1.0  0.66650  0.45160  0.81570  1.0000 0.1275158317
H   H91       1.0  0.38560  0.40480  0.92230  1.0000 0.1275158317
H   H92       1.0  0.28020  0.55770  0.91640  1.0000 0.1275158317
H   H93       1.0  0.55250  0.73120  0.92360  1.0000 0.1275158317
H   H94       1.0  0.50870  0.79960  0.99220  1.0000 0.1275158317
H   H95       1.0  0.04660  0.84700  0.95800  1.0000 0.1275158317
H   H96       1.0  0.08660  0.76750  0.89220  1.0000 0.1203878486
H   H97       1.0  0.82200  0.29710  0.75290  1.0000 0.1275158317
H   H98       1.0  0.67750  0.30770  0.72020  1.0000 0.1275158317
H   H99       1.0  0.70890  0.16200  0.78140  1.0000 0.080982672
H   H100      1.0  0.60360  0.25340  0.78820  1.0000 0.0892308484
H   H101      1.0  0.46380  0.88450  0.22610  0.5000 0.0892308484
H   H102      1.0  0.53620  0.11550  0.72610  0.5000 0.0892308484
H   H103      1.0  0.53620  0.88450  0.27390  0.5000 0.0892308484
H   H104      1.0  0.46380  0.11550  0.77390  0.5000 0.0892308484
C   C1        1.0  0.16690  0.07700  0.36705  1.0000 -0.0551670418
C   C2        1.0  0.21510  0.14840  0.34001  1.0000 -0.0770366342
C   C3        1.0  0.13850  0.02880  0.30022  1.0000 0.080982672
C   C4        1.0  0.88860  0.84550  0.44817  1.0000 0.0724758188
C   C5        1.0  0.74260  0.94500  0.41304  1.0000 -0.0521220193
C   C6        1.0  0.66790  0.92950  0.45225  1.0000 -0.1045637206
C   C7        1.0  0.47470  0.76040  0.38774  1.0000 -0.090235904
C   C8        1.0  0.36630  0.83140  0.38720  1.0000 -0.0670642854
C   C9        1.0  0.23920  0.70430  0.36653  1.0000 0.1107325205
C   C10       1.0  0.23850  0.16590  0.25766  1.0000 0.1386774256
C   C11       1.0  0.21510  0.26430  0.25427  1.0000 -0.160675875
C   C12       1.0  0.25270  0.31180  0.21550  1.0000 -0.160675875
C   C13       1.0  0.31120  0.26180  0.17997  1.0000 0.1776654273
C   C14       1.0  0.33450  0.16380  0.18288  1.0000 -0.1805784281
C   C15       1.0  0.29650  0.11540  0.22188  1.0000 -0.1805784281
C   C16       1.0  0.40990  0.40370  0.13804  1.0000 0.1776654273
C   C17       1.0  0.52370  0.43490  0.16818  1.0000 -0.1692762856
C   C18       1.0  0.58820  0.52750  0.16433  1.0000 -0.160675875
C   C19       1.0  0.53470  0.58790  0.13068  1.0000 0.1509089618
C   C20       1.0  0.42020  0.55520  0.10045  1.0000 -0.1480268825
C   C21       1.0  0.35700  0.46370  0.10384  1.0000 -0.1480268825
C   C22       1.0  0.32270  0.26080  0.09846  1.0000 0.165616393
C   C23       1.0  0.44900  0.24850  0.06863  1.0000 -0.160675875
C   C24       1.0  0.42410  0.20710  0.02795  1.0000 -0.1692762856
C   C25       1.0  0.26730  0.17510  0.01748  1.0000 0.1275158317
C   C26       1.0  0.14680  0.18030  0.04807  1.0000 -0.160675875
C   C27       1.0  0.17180  0.22560  0.08784  1.0000 -0.160675875
C   C28       1.0  0.84510  0.78680  0.30139  1.0000 0.5608987062
C   C29       1.0  0.74620  0.73890  0.26517  1.0000 -0.323659286
C   C30       1.0  0.64100  0.79200  0.23391  1.0000 -0.1480268825
C   C31       1.0  0.83310  0.92300  0.86705  1.0000 -0.0551670418
C   C32       1.0  0.78490  0.85160  0.84001  1.0000 -0.0770366342
C   C33       1.0  0.86150  0.97120  0.80022  1.0000 0.080982672
C   C34       1.0  0.11140  0.15450  0.94817  1.0000 0.0724758188
C   C35       1.0  0.25740  0.05500  0.91304  1.0000 -0.0521220193
C   C36       1.0  0.33210  0.07050  0.95225  1.0000 -0.1045637206
C   C37       1.0  0.52530  0.23960  0.88774  1.0000 -0.090235904
C   C38       1.0  0.63370  0.16860  0.88720  1.0000 -0.0670642854
C   C39       1.0  0.76080  0.29570  0.86653  1.0000 0.1107325205
C   C40       1.0  0.76150  0.83410  0.75766  1.0000 0.1386774256
C   C41       1.0  0.78490  0.73570  0.75427  1.0000 -0.160675875
C   C42       1.0  0.74730  0.68820  0.71550  1.0000 -0.160675875
C   C43       1.0  0.68880  0.73820  0.67997  1.0000 0.1776654273
C   C44       1.0  0.66550  0.83620  0.68288  1.0000 -0.1805784281
C   C45       1.0  0.70350  0.88460  0.72188  1.0000 -0.1805784281
C   C46       1.0  0.59010  0.59630  0.63804  1.0000 0.1776654273
C   C47       1.0  0.47630  0.56510  0.66818  1.0000 -0.1692762856
C   C48       1.0  0.41180  0.47250  0.66433  1.0000 -0.160675875
C   C49       1.0  0.46530  0.41210  0.63068  1.0000 0.1509089618
C   C50       1.0  0.57980  0.44480  0.60045  1.0000 -0.1480268825
C   C51       1.0  0.64300  0.53630  0.60384  1.0000 -0.1480268825
C   C52       1.0  0.67730  0.73920  0.59846  1.0000 0.165616393
C   C53       1.0  0.55100  0.75150  0.56863  1.0000 -0.160675875
C   C54       1.0  0.57590  0.79290  0.52795  1.0000 -0.1692762856
C   C55       1.0  0.73270  0.82490  0.51748  1.0000 0.1275158317
C   C56       1.0  0.85320  0.81970  0.54807  1.0000 -0.160675875
C   C57       1.0  0.82820  0.77440  0.58784  1.0000 -0.160675875
C   C58       1.0  0.15490  0.21320  0.80139  1.0000 0.5608987062
C   C59       1.0  0.25380  0.26110  0.76517  1.0000 -0.323659286
C   C60       1.0  0.35900  0.20800  0.73391  1.0000 -0.1480268825
C   C61       1.0  0.83310  0.07700  0.13295  1.0000 -0.0551670418
C   C62       1.0  0.78490  0.14840  0.15999  1.0000 -0.0770366342
C   C63       1.0  0.86150  0.02880  0.19978  1.0000 0.080982672
C   C64       1.0  0.11140  0.84550  0.05183  1.0000 0.0724758188
C   C65       1.0  0.25740  0.94500  0.08696  1.0000 -0.0521220193
C   C66       1.0  0.33210  0.92950  0.04775  1.0000 -0.1045637206
C   C67       1.0  0.52530  0.76040  0.11226  1.0000 -0.090235904
C   C68       1.0  0.63370  0.83140  0.11280  1.0000 -0.0670642854
C   C69       1.0  0.76080  0.70430  0.13347  1.0000 0.1107325205
C   C70       1.0  0.76150  0.16590  0.24234  1.0000 0.1386774256
C   C71       1.0  0.78490  0.26430  0.24573  1.0000 -0.160675875
C   C72       1.0  0.74730  0.31180  0.28450  1.0000 -0.160675875
C   C73       1.0  0.68880  0.26180  0.32003  1.0000 0.1776654273
C   C74       1.0  0.66550  0.16380  0.31712  1.0000 -0.1805784281
C   C75       1.0  0.70350  0.11540  0.27812  1.0000 -0.1805784281
C   C76       1.0  0.59010  0.40370  0.36196  1.0000 0.1776654273
C   C77       1.0  0.47630  0.43490  0.33182  1.0000 -0.1692762856
C   C78       1.0  0.41180  0.52750  0.33567  1.0000 -0.160675875
C   C79       1.0  0.46530  0.58790  0.36932  1.0000 0.1509089618
C   C80       1.0  0.57980  0.55520  0.39955  1.0000 -0.1480268825
C   C81       1.0  0.64300  0.46370  0.39616  1.0000 -0.1480268825
C   C82       1.0  0.67730  0.26080  0.40154  1.0000 0.165616393
C   C83       1.0  0.55100  0.24850  0.43137  1.0000 -0.160675875
C   C84       1.0  0.57590  0.20710  0.47205  1.0000 -0.1692762856
C   C85       1.0  0.73270  0.17510  0.48252  1.0000 0.1275158317
C   C86       1.0  0.85320  0.18030  0.45193  1.0000 -0.160675875
C   C87       1.0  0.82820  0.22560  0.41216  1.0000 -0.160675875
C   C88       1.0  0.15490  0.78680  0.19861  1.0000 0.5608987062
C   C89       1.0  0.25380  0.73890  0.23483  1.0000 -0.323659286
C   C90       1.0  0.35900  0.79200  0.26609  1.0000 -0.1480268825
C   C91       1.0  0.16690  0.92300  0.63295  1.0000 -0.0551670418
C   C92       1.0  0.21510  0.85160  0.65999  1.0000 -0.0770366342
C   C93       1.0  0.13850  0.97120  0.69978  1.0000 0.080982672
C   C94       1.0  0.88860  0.15450  0.55183  1.0000 0.0724758188
C   C95       1.0  0.74260  0.05500  0.58696  1.0000 -0.0521220193
C   C96       1.0  0.66790  0.07050  0.54775  1.0000 -0.1045637206
C   C97       1.0  0.47470  0.23960  0.61226  1.0000 -0.090235904
C   C98       1.0  0.36630  0.16860  0.61280  1.0000 -0.0670642854
C   C99       1.0  0.23920  0.29570  0.63347  1.0000 0.1107325205
C   C100      1.0  0.23850  0.83410  0.74234  1.0000 0.1386774256
C   C101      1.0  0.21510  0.73570  0.74573  1.0000 -0.160675875
C   C102      1.0  0.25270  0.68820  0.78450  1.0000 -0.160675875
C   C103      1.0  0.31120  0.73820  0.82003  1.0000 0.1776654273
C   C104      1.0  0.33450  0.83620  0.81712  1.0000 -0.1805784281
C   C105      1.0  0.29650  0.88460  0.77812  1.0000 -0.1805784281
C   C106      1.0  0.40990  0.59630  0.86196  1.0000 0.1776654273
C   C107      1.0  0.52370  0.56510  0.83182  1.0000 -0.1692762856
C   C108      1.0  0.58820  0.47250  0.83567  1.0000 -0.160675875
C   C109      1.0  0.53470  0.41210  0.86932  1.0000 0.1509089618
C   C110      1.0  0.42020  0.44480  0.89955  1.0000 -0.1480268825
C   C111      1.0  0.35700  0.53630  0.89616  1.0000 -0.1480268825
C   C112      1.0  0.32270  0.73920  0.90154  1.0000 0.165616393
C   C113      1.0  0.44900  0.75150  0.93137  1.0000 -0.160675875
C   C114      1.0  0.42410  0.79290  0.97205  1.0000 -0.1692762856
C   C115      1.0  0.26730  0.82490  0.98252  1.0000 0.1275158317
C   C116      1.0  0.14680  0.81970  0.95193  1.0000 -0.1692762856
C   C117      1.0  0.17180  0.77440  0.91216  1.0000 -0.160675875
C   C118      1.0  0.84510  0.21320  0.69861  1.0000 0.5608987062
C   C119      1.0  0.74620  0.26110  0.73483  1.0000 -0.323659286
C   C120      1.0  0.64100  0.20800  0.76609  1.0000 -0.1480268825
C   C121      1.0  0.50000  0.84310  0.25000  1.0000 -0.1977732928
C   C122      1.0  0.50000  0.15690  0.75000  1.0000 -0.1977732928
N   N1        1.0  0.11680  0.00130  0.34185  1.0000 -0.277721014
N   N2        1.0  0.19810  0.11730  0.29826  1.0000 0.0150882657
N   N3        1.0  0.87950  0.89230  0.41045  1.0000 -0.2674009205
N   N4        1.0  0.76240  0.86730  0.47455  1.0000 0.0104227089
N   N5        1.0  0.21860  0.79550  0.37384  1.0000 -0.277721014
N   N6        1.0  0.39720  0.68010  0.37456  1.0000 0.0104227089
N   N7        1.0  0.35050  0.30810  0.13968  1.0000 -0.1805784281
N   N8        1.0  0.88320  0.99870  0.84185  1.0000 -0.277721014
N   N9        1.0  0.80190  0.88270  0.79826  1.0000 0.0150882657
N   N10       1.0  0.12050  0.10770  0.91045  1.0000 -0.2674009205
N   N11       1.0  0.23760  0.13270  0.97455  1.0000 0.0104227089
N   N12       1.0  0.78140  0.20450  0.87384  1.0000 -0.277721014
N   N13       1.0  0.60280  0.31990  0.87456  1.0000 0.0104227089
N   N14       1.0  0.64950  0.69190  0.63968  1.0000 -0.1805784281
N   N15       1.0  0.88320  0.00130  0.15815  1.0000 -0.277721014
N   N16       1.0  0.80190  0.11730  0.20174  1.0000 0.0150882657
N   N17       1.0  0.12050  0.89230  0.08955  1.0000 -0.2674009205
N   N18       1.0  0.23760  0.86730  0.02545  1.0000 0.0104227089
N   N19       1.0  0.78140  0.79550  0.12616  1.0000 -0.277721014
N   N20       1.0  0.60280  0.68010  0.12544  1.0000 0.0104227089
N   N21       1.0  0.64950  0.30810  0.36032  1.0000 -0.1805784281
N   N22       1.0  0.11680  0.99870  0.65815  1.0000 -0.277721014
N   N23       1.0  0.19810  0.88270  0.70174  1.0000 0.0150882657
N   N24       1.0  0.87950  0.10770  0.58955  1.0000 -0.2674009205
N   N25       1.0  0.76240  0.13270  0.52545  1.0000 0.0104227089
N   N26       1.0  0.21860  0.20450  0.62616  1.0000 -0.277721014
N   N27       1.0  0.39720  0.31990  0.62544  1.0000 0.0104227089
N   N28       1.0  0.35050  0.69190  0.86032  1.0000 -0.1805784281
N   N29       1.0  0.11670  0.58970  0.61321  1.0000 0.654982671
N   N30       1.0  0.88330  0.41030  0.11321  1.0000 0.654982671
N   N31       1.0  0.88330  0.58970  0.88679  1.0000 0.654982671
N   N32       1.0  0.11670  0.41030  0.38679  1.0000 0.654982671
O   O1        1.0  0.87890  0.86910  0.30163  1.0000 -0.4824963362
O   O2        1.0  0.89430  0.73140  0.33047  1.0000 -0.5406999589
O   O3        1.0  0.12110  0.13090  0.80163  1.0000 -0.4824963362
O   O4        1.0  0.10570  0.26860  0.83047  1.0000 -0.5406999589
O   O5        1.0  0.12110  0.86910  0.19837  1.0000 -0.4824963362
O   O6        1.0  0.10570  0.73140  0.16953  1.0000 -0.5406999589
O   O7        1.0  0.87890  0.13090  0.69837  1.0000 -0.4824963362
O   O8        1.0  0.89430  0.26860  0.66953  1.0000 -0.5406999589
O   O9        1.0  0.08650  0.50960  0.60029  1.0000 -0.3911519573
O   O10       1.0  0.07400  0.61600  0.64999  1.0000 -0.4217215777
O   O11       1.0  0.19090  0.64550  0.58840  1.0000 -0.4217215777
O   O12       1.0  0.91350  0.49040  0.10029  1.0000 -0.3911519573
O   O13       1.0  0.92600  0.38400  0.14999  1.0000 -0.4217215777
O   O14       1.0  0.80910  0.35450  0.08840  1.0000 -0.4217215777
O   O15       1.0  0.91350  0.50960  0.89971  1.0000 -0.3911519573
O   O16       1.0  0.92600  0.61600  0.85001  1.0000 -0.4217215777
O   O17       1.0  0.80910  0.64550  0.91160  1.0000 -0.4217215777
O   O18       1.0  0.08650  0.49040  0.39971  1.0000 -0.3911519573
O   O19       1.0  0.07400  0.38400  0.35001  1.0000 -0.4217215777
O   O20       1.0  0.19090  0.35450  0.41160  1.0000 -0.4217215777
