# DDEC6 charges by PACMAN v1.1 (https://github.com/mtap-research/PACMAN-charge/)
data_2021[Zn][srs]3[ASR]1
_chemical_formula_sum              "Zn4 H12 C28 N4 O16"
_cell_length_a       11.203
_cell_length_b       11.394
_cell_length_c       14.313
_cell_angle_alpha    90
_cell_angle_beta     90
_cell_angle_gamma    90

_symmetry_space_group_name_H-M    "P 1"
_symmetry_Int_Tables_number       1

loop_
  _symmetry_equiv_pos_as_xyz
  'x, y, z'

loop_
  _atom_site_type_symbol
  _atom_site_label
  _atom_site_symmetry_multiplicity
  _atom_site_fract_x
  _atom_site_fract_y
  _atom_site_fract_z
  _atom_site_occupancy
  _atom_site_charge
Zn  Zn1       1.0  0.16496  0.81013  0.33888  1.0000 0.8111800663
Zn  Zn2       1.0  0.33504  0.18987  0.83888  1.0000 0.8111800663
Zn  Zn3       1.0  0.66496  0.68987  0.66112  1.0000 0.8111800663
Zn  Zn4       1.0  0.83504  0.31013  0.16112  1.0000 0.8111800663
H   H1        1.0  0.53476  0.46830  0.70208  1.0000 0.1151080243
H   H2        1.0  0.96524  0.53170  0.20208  1.0000 0.1146040373
H   H3        1.0  0.03476  0.03170  0.29792  1.0000 0.1151080243
H   H4        1.0  0.46524  0.96830  0.79792  1.0000 0.1151080243
H   H5        1.0  0.21195  0.47645  0.57891  1.0000 0.1273287572
H   H6        1.0  0.28805  0.52355  0.07891  1.0000 0.1273287572
H   H7        1.0  0.71195  0.02355  0.42109  1.0000 0.1273287572
H   H8        1.0  0.78805  0.97645  0.92109  1.0000 0.1273287572
H   H9        1.0  0.45845  0.72590  0.52779  1.0000 0.1273287572
H   H10       1.0  0.04155  0.27410  0.02779  1.0000 0.1273287572
H   H11       1.0  0.95845  0.77410  0.47221  1.0000 0.1273287572
H   H12       1.0  0.54155  0.22590  0.97221  1.0000 0.1273287572
C   C1        1.0  0.47960  0.50600  0.66150  1.0000 0.052612029
C   C2        1.0  0.02040  0.49400  0.16150  1.0000 0.052612029
C   C3        1.0  0.97960  0.99400  0.33850  1.0000 0.052612029
C   C4        1.0  0.52040  0.00600  0.83850  1.0000 0.052612029
C   C5        1.0  0.32200  0.61260  0.54360  1.0000 -0.0499512851
C   C6        1.0  0.17800  0.38740  0.04360  1.0000 -0.0499512851
C   C7        1.0  0.82200  0.88740  0.45640  1.0000 -0.0499512851
C   C8        1.0  0.67800  0.11260  0.95640  1.0000 -0.0499512851
C   C9        1.0  0.33240  0.34890  0.70300  1.0000 0.549464965
C   C10       1.0  0.16760  0.65110  0.20300  1.0000 0.5551231317
C   C11       1.0  0.83240  0.15110  0.29700  1.0000 0.549464965
C   C12       1.0  0.66760  0.84890  0.79700  1.0000 0.549464965
C   C13       1.0  0.36680  0.45630  0.64900  1.0000 -0.0435181062
C   C14       1.0  0.13320  0.54370  0.14900  1.0000 -0.0499512851
C   C15       1.0  0.86680  0.04370  0.35100  1.0000 -0.0499512851
C   C16       1.0  0.63320  0.95630  0.85100  1.0000 -0.0435181062
C   C17       1.0  0.28870  0.50950  0.58930  1.0000 -0.0435181062
C   C18       1.0  0.21130  0.49050  0.08930  1.0000 -0.0435181062
C   C19       1.0  0.78870  0.99050  0.41070  1.0000 -0.0435181062
C   C20       1.0  0.71130  0.00950  0.91070  1.0000 -0.0435181062
C   C21       1.0  0.23610  0.67340  0.48040  1.0000 0.549464965
C   C22       1.0  0.26390  0.32660  0.98040  1.0000 0.549464965
C   C23       1.0  0.73610  0.82660  0.51960  1.0000 0.549464965
C   C24       1.0  0.76390  0.17340  0.01960  1.0000 0.549464965
C   C25       1.0  0.43490  0.65650  0.55960  1.0000 0.0707837045
C   C26       1.0  0.06510  0.34350  0.05960  1.0000 0.0707837045
C   C27       1.0  0.93490  0.84350  0.44040  1.0000 0.0707837045
C   C28       1.0  0.56510  0.15650  0.94040  1.0000 0.0707837045
N   N1        1.0  0.51300  0.60570  0.61800  1.0000 -0.2441872582
N   N2        1.0  0.98700  0.39430  0.11800  1.0000 -0.2441872582
N   N3        1.0  0.01300  0.89430  0.38200  1.0000 -0.2441872582
N   N4        1.0  0.48700  0.10570  0.88200  1.0000 -0.2441872582
O   O1        1.0  0.28220  0.75320  0.42840  1.0000 -0.5409214236
O   O2        1.0  0.21780  0.24680  0.92840  1.0000 -0.5409214236
O   O3        1.0  0.78220  0.74680  0.57160  1.0000 -0.5409214236
O   O4        1.0  0.71780  0.25320  0.07160  1.0000 -0.5409214236
O   O5        1.0  0.41040  0.30800  0.75940  1.0000 -0.5409214236
O   O6        1.0  0.08960  0.69200  0.25940  1.0000 -0.5409214236
O   O7        1.0  0.91040  0.19200  0.24060  1.0000 -0.5409214236
O   O8        1.0  0.58960  0.80800  0.74060  1.0000 -0.5409214236
O   O9        1.0  0.23170  0.30820  0.69350  1.0000 -0.4691628106
O   O10       1.0  0.26830  0.69180  0.19350  1.0000 -0.4691628106
O   O11       1.0  0.73170  0.19180  0.30650  1.0000 -0.4691628106
O   O12       1.0  0.76830  0.80820  0.80650  1.0000 -0.4691628106
O   O13       1.0  0.13070  0.64770  0.48210  1.0000 -0.4691628106
O   O14       1.0  0.36930  0.35230  0.98210  1.0000 -0.4691628106
O   O15       1.0  0.63070  0.85230  0.51790  1.0000 -0.4691628106
O   O16       1.0  0.86930  0.14770  0.01790  1.0000 -0.4691628106
