# DDEC6 charges by PACMAN v1.1 (https://github.com/mtap-research/PACMAN-charge/)
data_2019[ZnSi][pcu]3[ASR]1
_chemical_formula_sum              "Zn4 Si4 H32 C32 N16 F24"
_cell_length_a       9.9917
_cell_length_b       9.9917
_cell_length_c       15.088
_cell_angle_alpha    90
_cell_angle_beta     90
_cell_angle_gamma    90

_symmetry_space_group_name_H-M    "P 1"
_symmetry_Int_Tables_number       1

loop_
  _symmetry_equiv_pos_as_xyz
  'x, y, z'

loop_
  _atom_site_type_symbol
  _atom_site_label
  _atom_site_symmetry_multiplicity
  _atom_site_fract_x
  _atom_site_fract_y
  _atom_site_fract_z
  _atom_site_occupancy
  _atom_site_charge
Zn  Zn1       1.0  0.50000  0.50000  0.75000  1.0000 0.7568789118
Zn  Zn2       1.0  0.00000  0.00000  0.25000  1.0000 0.7568789118
Zn  Zn3       1.0  0.50000  0.50000  0.25000  1.0000 0.7568789118
Zn  Zn4       1.0  0.00000  0.00000  0.75000  1.0000 0.7568789118
Si  Si1       1.0  0.50000  0.50000  0.50000  1.0000 1.7086791389
Si  Si2       1.0  0.00000  0.00000  0.00000  1.0000 1.7086791389
Si  Si3       1.0  0.50000  0.50000  0.00000  1.0000 1.7086791389
Si  Si4       1.0  0.00000  0.00000  0.50000  1.0000 1.7086791389
H   H1        1.0  0.61380  0.72260  0.87060  1.0000 0.1429277875
H   H2        1.0  0.11380  0.22260  0.37060  1.0000 0.1429277875
H   H3        1.0  0.38620  0.27740  0.87060  1.0000 0.1429277875
H   H4        1.0  0.88620  0.77740  0.37060  1.0000 0.1429277875
H   H5        1.0  0.27740  0.61380  0.87060  1.0000 0.1429277875
H   H6        1.0  0.77740  0.11380  0.37060  1.0000 0.1429277875
H   H7        1.0  0.72260  0.38620  0.87060  1.0000 0.1429277875
H   H8        1.0  0.22260  0.88620  0.37060  1.0000 0.1429277875
H   H9        1.0  0.38620  0.72260  0.62940  1.0000 0.1429277875
H   H10       1.0  0.88620  0.22260  0.12940  1.0000 0.1429277875
H   H11       1.0  0.61380  0.27740  0.62940  1.0000 0.1429277875
H   H12       1.0  0.11380  0.77740  0.12940  1.0000 0.1429277875
H   H13       1.0  0.72260  0.61380  0.62940  1.0000 0.1429277875
H   H14       1.0  0.22260  0.11380  0.12940  1.0000 0.1429277875
H   H15       1.0  0.27740  0.38620  0.62940  1.0000 0.1429277875
H   H16       1.0  0.77740  0.88620  0.12940  1.0000 0.1429277875
H   H17       1.0  0.38620  0.27740  0.12940  1.0000 0.1429277875
H   H18       1.0  0.88620  0.77740  0.62940  1.0000 0.1429277875
H   H19       1.0  0.61380  0.72260  0.12940  1.0000 0.1429277875
H   H20       1.0  0.11380  0.22260  0.62940  1.0000 0.1429277875
H   H21       1.0  0.72260  0.38620  0.12940  1.0000 0.1429277875
H   H22       1.0  0.22260  0.88620  0.62940  1.0000 0.1429277875
H   H23       1.0  0.27740  0.61380  0.12940  1.0000 0.1429277875
H   H24       1.0  0.77740  0.11380  0.62940  1.0000 0.1429277875
H   H25       1.0  0.61380  0.27740  0.37060  1.0000 0.1429277875
H   H26       1.0  0.11380  0.77740  0.87060  1.0000 0.1429277875
H   H27       1.0  0.38620  0.72260  0.37060  1.0000 0.1429277875
H   H28       1.0  0.88620  0.22260  0.87060  1.0000 0.1429277875
H   H29       1.0  0.27740  0.38620  0.37060  1.0000 0.1429277875
H   H30       1.0  0.77740  0.88620  0.87060  1.0000 0.1429277875
H   H31       1.0  0.72260  0.61380  0.37060  1.0000 0.1429277875
H   H32       1.0  0.22260  0.11380  0.87060  1.0000 0.1429277875
C   C1        1.0  0.66958  0.73275  0.81999  1.0000 0.0546874658
C   C2        1.0  0.16958  0.23275  0.31999  1.0000 0.0550541387
C   C3        1.0  0.33042  0.26725  0.81999  1.0000 0.0546874658
C   C4        1.0  0.83042  0.76725  0.31999  1.0000 0.0550541387
C   C5        1.0  0.26725  0.66958  0.81999  1.0000 0.0546874658
C   C6        1.0  0.76725  0.16958  0.31999  1.0000 0.0550541387
C   C7        1.0  0.73275  0.33042  0.81999  1.0000 0.0550541387
C   C8        1.0  0.23275  0.83042  0.31999  1.0000 0.0550541387
C   C9        1.0  0.33042  0.73275  0.68001  1.0000 0.0546874658
C   C10       1.0  0.83042  0.23275  0.18001  1.0000 0.0550541387
C   C11       1.0  0.66958  0.26725  0.68001  1.0000 0.0550541387
C   C12       1.0  0.16958  0.76725  0.18001  1.0000 0.0546874658
C   C13       1.0  0.73275  0.66958  0.68001  1.0000 0.0550541387
C   C14       1.0  0.23275  0.16958  0.18001  1.0000 0.0550541387
C   C15       1.0  0.26725  0.33042  0.68001  1.0000 0.0550541387
C   C16       1.0  0.76725  0.83042  0.18001  1.0000 0.0550541387
C   C17       1.0  0.33042  0.26725  0.18001  1.0000 0.0550541387
C   C18       1.0  0.83042  0.76725  0.68001  1.0000 0.0550541387
C   C19       1.0  0.66958  0.73275  0.18001  1.0000 0.0550541387
C   C20       1.0  0.16958  0.23275  0.68001  1.0000 0.0550541387
C   C21       1.0  0.73275  0.33042  0.18001  1.0000 0.0550541387
C   C22       1.0  0.23275  0.83042  0.68001  1.0000 0.0546874658
C   C23       1.0  0.26725  0.66958  0.18001  1.0000 0.0546874658
C   C24       1.0  0.76725  0.16958  0.68001  1.0000 0.0550541387
C   C25       1.0  0.66958  0.26725  0.31999  1.0000 0.0550541387
C   C26       1.0  0.16958  0.76725  0.81999  1.0000 0.0546874658
C   C27       1.0  0.33042  0.73275  0.31999  1.0000 0.0550541387
C   C28       1.0  0.83042  0.23275  0.81999  1.0000 0.0550541387
C   C29       1.0  0.26725  0.33042  0.31999  1.0000 0.0550541387
C   C30       1.0  0.76725  0.83042  0.81999  1.0000 0.0546874658
C   C31       1.0  0.73275  0.66958  0.31999  1.0000 0.0550541387
C   C32       1.0  0.23275  0.16958  0.81999  1.0000 0.0546874658
N   N1        1.0  0.65176  0.65176  0.75000  1.0000 -0.1977747285
N   N2        1.0  0.15176  0.15176  0.25000  1.0000 -0.1977747285
N   N3        1.0  0.34824  0.34824  0.75000  1.0000 -0.1977747285
N   N4        1.0  0.84824  0.84824  0.25000  1.0000 -0.1977747285
N   N5        1.0  0.34824  0.65176  0.75000  1.0000 -0.1977747285
N   N6        1.0  0.84824  0.15176  0.25000  1.0000 -0.1977747285
N   N7        1.0  0.65176  0.34824  0.75000  1.0000 -0.1977747285
N   N8        1.0  0.15176  0.84824  0.25000  1.0000 -0.1977747285
N   N9        1.0  0.34824  0.34824  0.25000  1.0000 -0.1977747285
N   N10       1.0  0.84824  0.84824  0.75000  1.0000 -0.1977747285
N   N11       1.0  0.65176  0.65176  0.25000  1.0000 -0.1977747285
N   N12       1.0  0.15176  0.15176  0.75000  1.0000 -0.1977747285
N   N13       1.0  0.65176  0.34824  0.25000  1.0000 -0.1977747285
N   N14       1.0  0.15176  0.84824  0.75000  1.0000 -0.1977747285
N   N15       1.0  0.34824  0.65176  0.25000  1.0000 -0.1977747285
N   N16       1.0  0.84824  0.15176  0.75000  1.0000 -0.1977747285
F   F1        1.0  0.50000  0.50000  0.61440  1.0000 -0.5381236149
F   F2        1.0  0.00000  0.00000  0.11440  1.0000 -0.5381236149
F   F3        1.0  0.50000  0.50000  0.88560  1.0000 -0.5381236149
F   F4        1.0  0.00000  0.00000  0.38560  1.0000 -0.5381236149
F   F5        1.0  0.50000  0.50000  0.38560  1.0000 -0.5381236149
F   F6        1.0  0.00000  0.00000  0.88560  1.0000 -0.5381236149
F   F7        1.0  0.50000  0.50000  0.11440  1.0000 -0.5381236149
F   F8        1.0  0.00000  0.00000  0.61440  1.0000 -0.5381236149
F   F9        1.0  0.66683  0.49224  0.50000  1.0000 -0.5457652615
F   F10       1.0  0.16683  0.99224  0.00000  1.0000 -0.5457652615
F   F11       1.0  0.33317  0.50776  0.50000  1.0000 -0.5457652615
F   F12       1.0  0.83317  0.00776  0.00000  1.0000 -0.5457652615
F   F13       1.0  0.50776  0.66683  0.50000  1.0000 -0.5457652615
F   F14       1.0  0.00776  0.16683  0.00000  1.0000 -0.5457652615
F   F15       1.0  0.49224  0.33317  0.50000  1.0000 -0.5457652615
F   F16       1.0  0.99224  0.83317  0.00000  1.0000 -0.5381236149
F   F17       1.0  0.33317  0.49224  0.00000  1.0000 -0.5457652615
F   F18       1.0  0.83317  0.99224  0.50000  1.0000 -0.5457652615
F   F19       1.0  0.66683  0.50776  0.00000  1.0000 -0.5457652615
F   F20       1.0  0.16683  0.00776  0.50000  1.0000 -0.5457652615
F   F21       1.0  0.49224  0.66683  0.00000  1.0000 -0.5457652615
F   F22       1.0  0.99224  0.16683  0.50000  1.0000 -0.5457652615
F   F23       1.0  0.50776  0.33317  0.00000  1.0000 -0.5457652615
F   F24       1.0  0.00776  0.83317  0.50000  1.0000 -0.5457652615
