# DDEC6 charges by PACMAN v1.1 (https://github.com/mtap-research/PACMAN-charge/)
data_c6cc01597b2_ASR_pacman
_symmetry_space_group_name_H-M   'P 1'
_cell_length_a   10.26700000
_cell_length_b   32.08600000
_cell_length_c   6.95500000
_cell_angle_alpha   90.00000000
_cell_angle_beta   90.00000000
_cell_angle_gamma   90.00000000
_symmetry_Int_Tables_number   1
_chemical_formula_structural   Zn2H7C15N4O5
_chemical_formula_sum   'Zn8 H28 C60 N16 O20'
_cell_volume   2291.16452071
_cell_formula_units_Z   4
loop_
 _symmetry_equiv_pos_site_id
 _symmetry_equiv_pos_as_xyz
  1  'x, y, z'
loop_
 _atom_site_type_symbol
 _atom_site_label
 _atom_site_symmetry_multiplicity
 _atom_site_fract_x
 _atom_site_fract_y
 _atom_site_fract_z
 _atom_site_occupancy
 _atom_site_charge
Zn  Zn1  1  0.50000000  0.50000000  0.50000000  1.0 0.7180961111
Zn  Zn2  1  0.50000000  0.50000000  0.00000000  1.0 0.7180961111
Zn  Zn3  1  0.00000000  0.00000000  0.50000000  1.0 0.7180961111
Zn  Zn4  1  0.00000000  0.00000000  0.00000000  1.0 0.7180961111
Zn  Zn5  1  0.50000000  0.40393000  0.25000000  1.0 0.8092032561
Zn  Zn6  1  0.50000000  0.59607000  0.75000000  1.0 0.8092032561
Zn  Zn7  1  0.00000000  0.90393000  0.25000000  1.0 0.8092032561
Zn  Zn8  1  0.00000000  0.09607000  0.75000000  1.0 0.8092032561
H  H1  1  0.00000000  0.41450000  0.25000000  1.0 0.1217381596
H  H2  1  0.00000000  0.58550000  0.75000000  1.0 0.1217381596
H  H3  1  0.50000000  0.91450000  0.25000000  1.0 0.1217381596
H  H4  1  0.50000000  0.08550000  0.75000000  1.0 0.1217381596
H  H5  1  0.19490000  0.30640000  0.25000000  1.0 0.1217381596
H  H6  1  0.80510000  0.69360000  0.75000000  1.0 0.1217381596
H  H7  1  0.19490000  0.69360000  0.75000000  1.0 0.1217381596
H  H8  1  0.80510000  0.30640000  0.25000000  1.0 0.1217381596
H  H9  1  0.69490000  0.80640000  0.25000000  1.0 0.1217381596
H  H10  1  0.30510000  0.19360000  0.75000000  1.0 0.1217381596
H  H11  1  0.69490000  0.19360000  0.75000000  1.0 0.1217381596
H  H12  1  0.30510000  0.80640000  0.25000000  1.0 0.1217381596
H  H13  1  0.11650000  0.24500000  0.01470000  0.5 0.089580875
H  H14  1  0.88350000  0.75500000  0.51470000  0.5 0.089580875
H  H15  1  0.11650000  0.75500000  0.98530000  0.5 0.089580875
H  H16  1  0.88350000  0.24500000  0.48530000  0.5 0.089580875
H  H17  1  0.61650000  0.74500000  0.01470000  0.5 0.089580875
H  H18  1  0.38350000  0.25500000  0.51470000  0.5 0.089580875
H  H19  1  0.61650000  0.25500000  0.98530000  0.5 0.089580875
H  H20  1  0.38350000  0.74500000  0.48530000  0.5 0.089580875
H  H21  1  0.88350000  0.75500000  0.98530000  0.5 0.089580875
H  H22  1  0.11650000  0.24500000  0.48530000  0.5 0.089580875
H  H23  1  0.88350000  0.24500000  0.01470000  0.5 0.089580875
H  H24  1  0.11650000  0.75500000  0.51470000  0.5 0.089580875
H  H25  1  0.38350000  0.25500000  0.98530000  0.5 0.089580875
H  H26  1  0.61650000  0.74500000  0.48530000  0.5 0.089580875
H  H27  1  0.38350000  0.74500000  0.01470000  0.5 0.089580875
H  H28  1  0.61650000  0.25500000  0.51470000  0.5 0.089580875
H  H29  1  0.11270000  0.17130000  0.01360000  0.5 0.104151603
H  H30  1  0.88730000  0.82870000  0.51360000  0.5 0.104151603
H  H31  1  0.11270000  0.82870000  0.98640000  0.5 0.104151603
H  H32  1  0.88730000  0.17130000  0.48640000  0.5 0.104151603
H  H33  1  0.61270000  0.67130000  0.01360000  0.5 0.104151603
H  H34  1  0.38730000  0.32870000  0.51360000  0.5 0.104151603
H  H35  1  0.61270000  0.32870000  0.98640000  0.5 0.104151603
H  H36  1  0.38730000  0.67130000  0.48640000  0.5 0.104151603
H  H37  1  0.88730000  0.82870000  0.98640000  0.5 0.104151603
H  H38  1  0.11270000  0.17130000  0.48640000  0.5 0.104151603
H  H39  1  0.88730000  0.17130000  0.01360000  0.5 0.104151603
H  H40  1  0.11270000  0.82870000  0.51360000  0.5 0.104151603
H  H41  1  0.38730000  0.32870000  0.98640000  0.5 0.104151603
H  H42  1  0.61270000  0.67130000  0.48640000  0.5 0.104151603
H  H43  1  0.38730000  0.67130000  0.01360000  0.5 0.104151603
H  H44  1  0.61270000  0.32870000  0.51360000  0.5 0.104151603
C  C1  1  0.23600000  0.38850000  0.25000000  1.0 0.5386417249
C  C2  1  0.76400000  0.61150000  0.75000000  1.0 0.5386417249
C  C3  1  0.23600000  0.61150000  0.75000000  1.0 0.5386417249
C  C4  1  0.76400000  0.38850000  0.25000000  1.0 0.5386417249
C  C5  1  0.73600000  0.88850000  0.25000000  1.0 0.5386417249
C  C6  1  0.26400000  0.11150000  0.75000000  1.0 0.5386417249
C  C7  1  0.73600000  0.11150000  0.75000000  1.0 0.5386417249
C  C8  1  0.26400000  0.88850000  0.25000000  1.0 0.5386417249
C  C9  1  0.11440000  0.36461000  0.25000000  1.0 -0.0430762082
C  C10  1  0.88560000  0.63539000  0.75000000  1.0 -0.0430762082
C  C11  1  0.11440000  0.63539000  0.75000000  1.0 -0.0430762082
C  C12  1  0.88560000  0.36461000  0.25000000  1.0 -0.0430762082
C  C13  1  0.61440000  0.86461000  0.25000000  1.0 -0.0430762082
C  C14  1  0.38560000  0.13539000  0.75000000  1.0 -0.0430762082
C  C15  1  0.61440000  0.13539000  0.75000000  1.0 -0.0430762082
C  C16  1  0.38560000  0.86461000  0.25000000  1.0 -0.0430762082
C  C17  1  0.00000000  0.38550000  0.25000000  1.0 -0.095703069
C  C18  1  0.00000000  0.61450000  0.75000000  1.0 -0.095703069
C  C19  1  0.50000000  0.88550000  0.25000000  1.0 -0.095703069
C  C20  1  0.50000000  0.11450000  0.75000000  1.0 -0.095703069
C  C21  1  0.11600000  0.32058000  0.25000000  1.0 -0.1696611008
C  C22  1  0.88400000  0.67942000  0.75000000  1.0 -0.1696611008
C  C23  1  0.11600000  0.67942000  0.75000000  1.0 -0.1696611008
C  C24  1  0.88400000  0.32058000  0.25000000  1.0 -0.1696611008
C  C25  1  0.61600000  0.82058000  0.25000000  1.0 -0.1696611008
C  C26  1  0.38400000  0.17942000  0.75000000  1.0 -0.1696611008
C  C27  1  0.61600000  0.17942000  0.75000000  1.0 -0.1696611008
C  C28  1  0.38400000  0.82058000  0.25000000  1.0 -0.1696611008
C  C29  1  0.00000000  0.29864000  0.25000000  1.0 0.0576799551
C  C30  1  0.00000000  0.70136000  0.75000000  1.0 0.0576799551
C  C31  1  0.50000000  0.79864000  0.25000000  1.0 0.0576799551
C  C32  1  0.50000000  0.20136000  0.75000000  1.0 0.0576799551
C  C33  1  0.00000000  0.25196000  0.25000000  1.0 0.0394847357
C  C34  1  0.00000000  0.74804000  0.75000000  1.0 0.0394847357
C  C35  1  0.50000000  0.75196000  0.25000000  1.0 0.0394847357
C  C36  1  0.50000000  0.24804000  0.75000000  1.0 0.0394847357
C  C69  1  0.00000000  0.16507000  0.25000000  1.0 0.0394847357
C  C70  1  0.00000000  0.83493000  0.75000000  1.0 0.0394847357
C  C71  1  0.50000000  0.66507000  0.25000000  1.0 0.0394847357
C  C72  1  0.50000000  0.33493000  0.75000000  1.0 0.0394847357
C  C73  1  0.00000000  0.11868000  0.25000000  1.0 0.2598375791
C  C74  1  0.00000000  0.88132000  0.75000000  1.0 0.2598375791
C  C75  1  0.50000000  0.61868000  0.25000000  1.0 0.2598375791
C  C76  1  0.50000000  0.38132000  0.75000000  1.0 0.2598375791
C  C37  1  0.06830000  0.23030000  0.11130000  0.5 -0.0674743157
C  C38  1  0.93170000  0.76970000  0.61130000  0.5 -0.0674743157
C  C39  1  0.06830000  0.76970000  0.88870000  0.5 -0.0674743157
C  C40  1  0.93170000  0.23030000  0.38870000  0.5 -0.0674743157
C  C41  1  0.56830000  0.73030000  0.11130000  0.5 -0.0674743157
C  C42  1  0.43170000  0.26970000  0.61130000  0.5 -0.0674743157
C  C43  1  0.56830000  0.26970000  0.88870000  0.5 -0.0674743157
C  C44  1  0.43170000  0.73030000  0.38870000  0.5 -0.0674743157
C  C45  1  0.93170000  0.76970000  0.88870000  0.5 -0.0674743157
C  C46  1  0.06830000  0.23030000  0.38870000  0.5 -0.0674743157
C  C47  1  0.93170000  0.23030000  0.11130000  0.5 -0.0674743157
C  C48  1  0.06830000  0.76970000  0.61130000  0.5 -0.0674743157
C  C49  1  0.43170000  0.26970000  0.88870000  0.5 -0.0674743157
C  C50  1  0.56830000  0.73030000  0.38870000  0.5 -0.0674743157
C  C51  1  0.43170000  0.73030000  0.11130000  0.5 -0.0674743157
C  C52  1  0.56830000  0.26970000  0.61130000  0.5 -0.0674743157
C  C53  1  0.06640000  0.18639000  0.11130000  0.5 -0.0674743157
C  C54  1  0.93360000  0.81361000  0.61130000  0.5 -0.0674743157
C  C55  1  0.06640000  0.81361000  0.88870000  0.5 -0.0674743157
C  C56  1  0.93360000  0.18639000  0.38870000  0.5 -0.0674743157
C  C57  1  0.56640000  0.68639000  0.11130000  0.5 -0.0674743157
C  C58  1  0.43360000  0.31361000  0.61130000  0.5 -0.0674743157
C  C59  1  0.56640000  0.31361000  0.88870000  0.5 -0.0674743157
C  C60  1  0.43360000  0.68639000  0.38870000  0.5 -0.0674743157
C  C61  1  0.93360000  0.81361000  0.88870000  0.5 -0.0674743157
C  C62  1  0.06640000  0.18639000  0.38870000  0.5 -0.0674743157
C  C63  1  0.93360000  0.18639000  0.11130000  0.5 -0.0674743157
C  C64  1  0.06640000  0.81361000  0.61130000  0.5 -0.0674743157
C  C65  1  0.43360000  0.31361000  0.88870000  0.5 -0.0674743157
C  C66  1  0.56640000  0.68639000  0.38870000  0.5 -0.0674743157
C  C67  1  0.43360000  0.68639000  0.11130000  0.5 -0.0674743157
C  C68  1  0.56640000  0.31361000  0.61130000  0.5 -0.0674743157
N  N1  1  0.00000000  0.05633000  0.34300000  1.0 -0.095703069
N  N2  1  0.00000000  0.94367000  0.84300000  1.0 -0.095703069
N  N3  1  0.00000000  0.94367000  0.65700000  1.0 -0.095703069
N  N4  1  0.00000000  0.05633000  0.15700000  1.0 -0.0947549304
N  N5  1  0.50000000  0.55633000  0.34300000  1.0 -0.095703069
N  N6  1  0.50000000  0.44367000  0.84300000  1.0 -0.095703069
N  N7  1  0.50000000  0.44367000  0.65700000  1.0 -0.095703069
N  N8  1  0.50000000  0.55633000  0.15700000  1.0 -0.095703069
N  N9  1  0.00000000  0.09541000  0.40720000  1.0 -0.2468365988
N  N10  1  0.00000000  0.90459000  0.90720000  1.0 -0.2468365988
N  N11  1  0.00000000  0.90459000  0.59280000  1.0 -0.2468365988
N  N12  1  0.00000000  0.09541000  0.09280000  1.0 -0.2468365988
N  N13  1  0.50000000  0.59541000  0.40720000  1.0 -0.2468365988
N  N14  1  0.50000000  0.40459000  0.90720000  1.0 -0.2468365988
N  N15  1  0.50000000  0.40459000  0.59280000  1.0 -0.2468365988
N  N16  1  0.50000000  0.59541000  0.09280000  1.0 -0.2468365988
O  O1  1  0.23530000  0.42730000  0.25000000  1.0 -0.5280819199
O  O2  1  0.76470000  0.57270000  0.75000000  1.0 -0.5280819199
O  O3  1  0.23530000  0.57270000  0.75000000  1.0 -0.5280819199
O  O4  1  0.76470000  0.42730000  0.25000000  1.0 -0.5280819199
O  O5  1  0.73530000  0.92730000  0.25000000  1.0 -0.5280819199
O  O6  1  0.26470000  0.07270000  0.75000000  1.0 -0.5280819199
O  O7  1  0.73530000  0.07270000  0.75000000  1.0 -0.5280819199
O  O8  1  0.26470000  0.92730000  0.25000000  1.0 -0.5280819199
O  O17  1  0.33960000  0.36950000  0.25000000  1.0 -0.5427941343
O  O18  1  0.66040000  0.63050000  0.75000000  1.0 -0.5427941343
O  O19  1  0.33960000  0.63050000  0.75000000  1.0 -0.5427941343
O  O20  1  0.66040000  0.36950000  0.25000000  1.0 -0.5427941343
O  O21  1  0.83960000  0.86950000  0.25000000  1.0 -0.5427941343
O  O22  1  0.16040000  0.13050000  0.75000000  1.0 -0.5427941343
O  O23  1  0.83960000  0.13050000  0.75000000  1.0 -0.5427941343
O  O24  1  0.16040000  0.86950000  0.25000000  1.0 -0.5427941343
O  O9  1  0.45470000  0.46568000  0.25000000  0.5 -0.1268237958
O  O10  1  0.54530000  0.53432000  0.75000000  0.5 -0.1268237958
O  O11  1  0.45470000  0.53432000  0.75000000  0.5 -0.1268237958
O  O12  1  0.54530000  0.46568000  0.25000000  0.5 -0.1268237958
O  O13  1  0.95470000  0.96568000  0.25000000  0.5 -0.1268237958
O  O14  1  0.04530000  0.03432000  0.75000000  0.5 -0.1268237958
O  O15  1  0.95470000  0.03432000  0.75000000  0.5 -0.1268237958
O  O16  1  0.04530000  0.96568000  0.25000000  0.5 -0.1268237958
