# DDEC6 charges by PACMAN v1.1 (https://github.com/mtap-research/PACMAN-charge/)
data_c7ce00912g2_FSR_pacman
_symmetry_space_group_name_H-M   'P 1'
_cell_length_a   9.09400000
_cell_length_b   12.71340000
_cell_length_c   33.94630000
_cell_angle_alpha   90.00000000
_cell_angle_beta   90.00000000
_cell_angle_gamma   90.00000000
_symmetry_Int_Tables_number   1
_chemical_formula_structural   Zn2H9C23O11
_chemical_formula_sum   'Zn8 H36 C92 O44'
_cell_volume   3924.72386548
_cell_formula_units_Z   4
loop_
 _symmetry_equiv_pos_site_id
 _symmetry_equiv_pos_as_xyz
  1  'x, y, z'
loop_
 _atom_site_type_symbol
 _atom_site_label
 _atom_site_symmetry_multiplicity
 _atom_site_fract_x
 _atom_site_fract_y
 _atom_site_fract_z
 _atom_site_occupancy
 _atom_site_charge
Zn  Zn1  1  0.90176000  0.81472000  0.17965000  1.0 0.9788344801
Zn  Zn2  1  0.23690000  0.23644000  0.40901000  1.0 0.9352285416
Zn  Zn3  1  0.59824000  0.18528000  0.67965000  1.0 0.9788344801
Zn  Zn4  1  0.26310000  0.76356000  0.90901000  1.0 0.9331206829
Zn  Zn5  1  0.09824000  0.31472000  0.32035000  1.0 0.9788344801
Zn  Zn6  1  0.76310000  0.73644000  0.09099000  1.0 0.9331206829
Zn  Zn7  1  0.40176000  0.68528000  0.82035000  1.0 0.9788344801
Zn  Zn8  1  0.73690000  0.26356000  0.59099000  1.0 0.9331206829
H  H1  1  0.09577000  0.01993000  0.27793000  1.0 0.1434989573
H  H2  1  0.87198000  0.30640000  0.47106000  1.0 0.1434989573
H  H3  1  0.23691000  0.60418000  0.33910000  1.0 0.1281785146
H  H4  1  0.22442000  0.71729000  0.29018000  1.0 0.1231043787
H  H5  1  0.33026000  0.93287000  0.37346000  1.0 0.1281785146
H  H6  1  0.71258000  0.44990000  0.37303000  1.0 0.1281785146
H  H7  1  0.52319000  0.50279000  0.47881000  1.0 0.1281785146
H  H8  1  0.50215000  0.81837000  0.38976000  1.0 0.1231043787
H  H9  1  0.62500000  0.68591000  0.42292000  1.0 0.1281785146
H  H10  1  0.40423000  0.98007000  0.77793000  1.0 0.1434989573
H  H11  1  0.62802000  0.69360000  0.97106000  1.0 0.1434989573
H  H12  1  0.26309000  0.39582000  0.83910000  1.0 0.1281785146
H  H13  1  0.27558000  0.28271000  0.79018000  1.0 0.1231043787
H  H14  1  0.16974000  0.06713000  0.87346000  1.0 0.1281785146
H  H15  1  0.78742000  0.55010000  0.87303000  1.0 0.1281785146
H  H16  1  0.97681000  0.49721000  0.97881000  1.0 0.1281785146
H  H17  1  0.99785000  0.18163000  0.88976000  1.0 0.1231043787
H  H18  1  0.87500000  0.31409000  0.92292000  1.0 0.1281785146
H  H19  1  0.90423000  0.51993000  0.22207000  1.0 0.1434989573
H  H20  1  0.12802000  0.80640000  0.02894000  1.0 0.1434989573
H  H21  1  0.76309000  0.10418000  0.16090000  1.0 0.1281785146
H  H22  1  0.77558000  0.21729000  0.20982000  1.0 0.1231043787
H  H23  1  0.66974000  0.43287000  0.12654000  1.0 0.1281785146
H  H24  1  0.28742000  0.94990000  0.12697000  1.0 0.1281785146
H  H25  1  0.47681000  0.00279000  0.02119000  1.0 0.1281785146
H  H26  1  0.49785000  0.31837000  0.11024000  1.0 0.1231043787
H  H27  1  0.37500000  0.18591000  0.07708000  1.0 0.1281785146
H  H28  1  0.59577000  0.48007000  0.72207000  1.0 0.1434989573
H  H29  1  0.37198000  0.19360000  0.52894000  1.0 0.1434989573
H  H30  1  0.73691000  0.89582000  0.66090000  1.0 0.1281785146
H  H31  1  0.72442000  0.78271000  0.70982000  1.0 0.1231043787
H  H32  1  0.83026000  0.56713000  0.62654000  1.0 0.1281785146
H  H33  1  0.21258000  0.05010000  0.62697000  1.0 0.1281785146
H  H34  1  0.02319000  0.99721000  0.52119000  1.0 0.1281785146
H  H35  1  0.00215000  0.68163000  0.61024000  1.0 0.1231043787
H  H36  1  0.12500000  0.81409000  0.57708000  1.0 0.1281785146
C  C1  1  0.36320000  0.72580000  0.35940000  1.0 0.0676385329
C  C2  1  0.14730000  0.86190000  0.27920000  1.0 -0.0106379988
C  C3  1  0.14250000  0.96630000  0.29280000  1.0 -0.1066589466
C  C4  1  0.80270000  0.35150000  0.45870000  1.0 -0.1020098197
C  C5  1  0.31640000  0.62080000  0.35620000  1.0 -0.1373001497
C  C6  1  0.28680000  0.80970000  0.33620000  1.0 0.0771468197
C  C7  1  0.81180000  0.37160000  0.41830000  1.0 -0.0106379988
C  C8  1  0.21960000  0.78690000  0.30020000  1.0 -0.1482004466
C  C9  1  0.38470000  0.54020000  0.37750000  1.0 -0.0764446854
C  C10  1  0.28220000  0.91360000  0.34970000  1.0 -0.1373001497
C  C11  1  0.70800000  0.43790000  0.40060000  1.0 -0.1482004466
C  C12  1  0.20690000  0.98790000  0.32800000  1.0 -0.0106379988
C  C13  1  0.20070000  0.10040000  0.34310000  1.0 0.5992998154
C  C14  1  0.59390000  0.46760000  0.46300000  1.0 -0.1373001497
C  C15  1  0.69120000  0.39810000  0.48060000  1.0 0.0014837015
C  C16  1  0.32060000  0.43260000  0.37360000  1.0 0.5992998154
C  C17  1  0.93680000  0.32790000  0.39470000  1.0 0.5992998154
C  C18  1  0.59750000  0.48680000  0.42280000  1.0 0.0771468197
C  C19  1  0.49970000  0.56470000  0.40260000  1.0 0.0613165462
C  C20  1  0.47370000  0.74730000  0.38560000  1.0 -0.1296424865
C  C21  1  0.68600000  0.37780000  0.52430000  1.0 0.566098407
C  C22  1  0.07510000  0.83080000  0.24080000  1.0 0.5174611063
C  C23  1  0.54470000  0.66880000  0.40620000  1.0 -0.1296424865
C  C24  1  0.13680000  0.27420000  0.85940000  1.0 0.0676385329
C  C25  1  0.35270000  0.13810000  0.77920000  1.0 -0.0106379988
C  C26  1  0.35750000  0.03370000  0.79280000  1.0 -0.1066589466
C  C27  1  0.69730000  0.64850000  0.95870000  1.0 -0.1020098197
C  C28  1  0.18360000  0.37920000  0.85620000  1.0 -0.1373001497
C  C29  1  0.21320000  0.19030000  0.83620000  1.0 0.0771468197
C  C30  1  0.68820000  0.62840000  0.91830000  1.0 -0.0106379988
C  C31  1  0.28040000  0.21310000  0.80020000  1.0 -0.1482004466
C  C32  1  0.11530000  0.45980000  0.87750000  1.0 -0.0764446854
C  C33  1  0.21780000  0.08640000  0.84970000  1.0 -0.1373001497
C  C34  1  0.79200000  0.56210000  0.90060000  1.0 -0.1482004466
C  C35  1  0.29310000  0.01210000  0.82800000  1.0 -0.0106379988
C  C36  1  0.29930000  0.89960000  0.84310000  1.0 0.5992998154
C  C37  1  0.90610000  0.53240000  0.96300000  1.0 -0.1373001497
C  C38  1  0.80880000  0.60190000  0.98060000  1.0 0.0014837015
C  C39  1  0.17940000  0.56740000  0.87360000  1.0 0.5992998154
C  C40  1  0.56320000  0.67210000  0.89470000  1.0 0.5992998154
C  C41  1  0.90250000  0.51320000  0.92280000  1.0 0.0771468197
C  C42  1  0.00030000  0.43530000  0.90260000  1.0 0.0613165462
C  C43  1  0.02630000  0.25270000  0.88560000  1.0 -0.1296424865
C  C44  1  0.81400000  0.62220000  0.02430000  1.0 0.566098407
C  C45  1  0.42490000  0.16920000  0.74080000  1.0 0.5174611063
C  C46  1  0.95530000  0.33120000  0.90620000  1.0 -0.1296424865
C  C47  1  0.63680000  0.22580000  0.14060000  1.0 0.0676385329
C  C48  1  0.85270000  0.36190000  0.22080000  1.0 -0.0106379988
C  C49  1  0.85750000  0.46630000  0.20720000  1.0 -0.1066589466
C  C50  1  0.19730000  0.85150000  0.04130000  1.0 -0.1020098197
C  C51  1  0.68360000  0.12080000  0.14380000  1.0 -0.1373001497
C  C52  1  0.71320000  0.30970000  0.16380000  1.0 0.0676385329
C  C53  1  0.18820000  0.87160000  0.08170000  1.0 -0.0106379988
C  C54  1  0.78040000  0.28690000  0.19980000  1.0 -0.1482004466
C  C55  1  0.61530000  0.04020000  0.12250000  1.0 -0.0764446854
C  C56  1  0.71780000  0.41360000  0.15030000  1.0 -0.1373001497
C  C57  1  0.29200000  0.93790000  0.09940000  1.0 -0.1482004466
C  C58  1  0.79310000  0.48790000  0.17200000  1.0 -0.0106379988
C  C59  1  0.79930000  0.60040000  0.15690000  1.0 0.5992998154
C  C60  1  0.40610000  0.96760000  0.03700000  1.0 -0.1373001497
C  C61  1  0.30880000  0.89810000  0.01940000  1.0 0.0014837015
C  C62  1  0.67940000  0.93260000  0.12640000  1.0 0.5992998154
C  C63  1  0.06320000  0.82790000  0.10530000  1.0 0.6053311975
C  C64  1  0.40250000  0.98680000  0.07720000  1.0 0.0771468197
C  C65  1  0.50030000  0.06470000  0.09740000  1.0 0.0613165462
C  C66  1  0.52630000  0.24730000  0.11440000  1.0 -0.1296424865
C  C67  1  0.31400000  0.87780000  0.97570000  1.0 0.566098407
C  C68  1  0.92490000  0.33080000  0.25920000  1.0 0.5174611063
C  C69  1  0.45530000  0.16880000  0.09380000  1.0 -0.1296424865
C  C70  1  0.86320000  0.77420000  0.64060000  1.0 0.0676385329
C  C71  1  0.64730000  0.63810000  0.72080000  1.0 -0.0106379988
C  C72  1  0.64250000  0.53370000  0.70720000  1.0 -0.1066589466
C  C73  1  0.30270000  0.14850000  0.54130000  1.0 -0.1020098197
C  C74  1  0.81640000  0.87920000  0.64380000  1.0 -0.1373001497
C  C75  1  0.78680000  0.69030000  0.66380000  1.0 0.0771468197
C  C76  1  0.31180000  0.12840000  0.58170000  1.0 -0.0106379988
C  C77  1  0.71960000  0.71310000  0.69980000  1.0 -0.1482004466
C  C78  1  0.88470000  0.95980000  0.62250000  1.0 -0.0764446854
C  C79  1  0.78220000  0.58640000  0.65030000  1.0 -0.1373001497
C  C80  1  0.20800000  0.06210000  0.59940000  1.0 -0.1482004466
C  C81  1  0.70690000  0.51210000  0.67200000  1.0 -0.0106379988
C  C82  1  0.70070000  0.39960000  0.65690000  1.0 0.5992998154
C  C83  1  0.09390000  0.03240000  0.53700000  1.0 -0.1373001497
C  C84  1  0.19120000  0.10190000  0.51940000  1.0 0.0014837015
C  C85  1  0.82060000  0.06740000  0.62640000  1.0 0.5992998154
C  C86  1  0.43680000  0.17210000  0.60530000  1.0 0.6053311975
C  C87  1  0.09750000  0.01320000  0.57720000  1.0 0.0771468197
C  C88  1  0.99970000  0.93530000  0.59740000  1.0 0.0613165462
C  C89  1  0.97370000  0.75270000  0.61440000  1.0 -0.1296424865
C  C90  1  0.18600000  0.12220000  0.47570000  1.0 0.566098407
C  C91  1  0.57510000  0.66920000  0.75920000  1.0 0.5174611063
C  C92  1  0.04470000  0.83120000  0.59380000  1.0 -0.1296424865
O  O1  1  0.27930000  0.12230000  0.37260000  1.0 -0.5385352223
O  O2  1  0.34910000  0.36480000  0.39930000  1.0 -0.5171460061
O  O3  1  0.77360000  0.30550000  0.53740000  1.0 -0.5385352223
O  O4  1  0.93230000  0.34250000  0.35790000  1.0 -0.5385352223
O  O5  1  0.60100000  0.42800000  0.54580000  1.0 -0.4821195303
O  O6  1  0.11740000  0.16270000  0.32650000  1.0 -0.5059404819
O  O7  1  0.10200000  0.74680000  0.22570000  1.0 -0.4496137052
O  O8  1  0.03860000  0.28570000  0.41340000  1.0 -0.5385352223
O  O9  1  0.23940000  0.41640000  0.34430000  1.0 -0.5478214024
O  O10  1  0.98440000  0.89130000  0.22570000  1.0 -0.4821195303
O  O11  1  0.71900000  0.77900000  0.21750000  1.0 0.1665219914
O  O12  1  0.22070000  0.87770000  0.87260000  1.0 -0.5347880571
O  O13  1  0.15090000  0.63520000  0.89930000  1.0 -0.5171460061
O  O14  1  0.72640000  0.69450000  0.03740000  1.0 -0.5385352223
O  O15  1  0.56770000  0.65750000  0.85790000  1.0 -0.5385352223
O  O16  1  0.89900000  0.57200000  0.04580000  1.0 -0.4821195303
O  O17  1  0.38260000  0.83730000  0.82650000  1.0 -0.5059404819
O  O18  1  0.39800000  0.25320000  0.72570000  1.0 -0.4496137052
O  O19  1  0.46140000  0.71430000  0.91340000  1.0 -0.5385352223
O  O20  1  0.26060000  0.58360000  0.84430000  1.0 -0.5478214024
O  O21  1  0.51560000  0.10870000  0.72570000  1.0 -0.4821195303
O  O22  1  0.78100000  0.22100000  0.71750000  1.0 0.1665219914
O  O23  1  0.72070000  0.62230000  0.12740000  1.0 -0.5347880571
O  O24  1  0.65090000  0.86480000  0.10070000  1.0 -0.5171460061
O  O25  1  0.22640000  0.80550000  0.96260000  1.0 -0.5385352223
O  O26  1  0.06770000  0.84250000  0.14210000  1.0 -0.5385352223
O  O27  1  0.39900000  0.92800000  0.95420000  1.0 -0.4821195303
O  O28  1  0.88260000  0.66270000  0.17350000  1.0 -0.5059404819
O  O29  1  0.89800000  0.24680000  0.27430000  1.0 -0.4444402604
O  O30  1  0.96140000  0.78570000  0.08660000  1.0 -0.5347880571
O  O31  1  0.76060000  0.91640000  0.15570000  1.0 -0.5478214024
O  O32  1  0.01560000  0.39130000  0.27430000  1.0 -0.4821195303
O  O33  1  0.28100000  0.27900000  0.28250000  1.0 0.1644348354
O  O34  1  0.77930000  0.37770000  0.62740000  1.0 -0.5385352223
O  O35  1  0.84910000  0.13520000  0.60070000  1.0 -0.5171460061
O  O36  1  0.27360000  0.19450000  0.46260000  1.0 -0.5385352223
O  O37  1  0.43230000  0.15750000  0.64210000  1.0 -0.5385352223
O  O38  1  0.10100000  0.07200000  0.45420000  1.0 -0.4821195303
O  O39  1  0.61740000  0.33730000  0.67350000  1.0 -0.5059404819
O  O40  1  0.60200000  0.75320000  0.77430000  1.0 -0.4496137052
O  O41  1  0.53860000  0.21430000  0.58660000  1.0 -0.5385352223
O  O42  1  0.73940000  0.08360000  0.65570000  1.0 -0.5478214024
O  O43  1  0.48440000  0.60870000  0.77430000  1.0 -0.4821195303
O  O44  1  0.21900000  0.72100000  0.78250000  1.0 0.1665219914
