# DDEC6 charges by PACMAN v1.1 (https://github.com/mtap-research/PACMAN-charge/)
data_2024[Zn][sql]2[FSR]3
_chemical_formula_sum              "Zn4 H88 C112 N8 O28"
_cell_length_a       10.1293
_cell_length_b       13.6458
_cell_length_c       21.7476
_cell_angle_alpha    90
_cell_angle_beta     90
_cell_angle_gamma    90

_symmetry_space_group_name_H-M    "P 1"
_symmetry_Int_Tables_number       1

loop_
  _symmetry_equiv_pos_as_xyz
  'x, y, z'

loop_
  _atom_site_type_symbol
  _atom_site_label
  _atom_site_symmetry_multiplicity
  _atom_site_fract_x
  _atom_site_fract_y
  _atom_site_fract_z
  _atom_site_occupancy
  _atom_site_charge
Zn  Zn1       1.0  0.97101  0.48092  0.16685  1.0000 0.7270361658
Zn  Zn2       1.0  0.02899  0.01908  0.66685  1.0000 0.7270361658
Zn  Zn3       1.0  0.97101  0.51908  0.83315  1.0000 0.7270361658
Zn  Zn4       1.0  0.02899  0.98092  0.33315  1.0000 0.7270361658
H   H1        1.0  0.34940  0.62350  0.18900  1.0000 0.3621249373
H   H2        1.0  0.65060  0.87650  0.68900  1.0000 0.3621249373
H   H3        1.0  0.40500  0.93700  0.17510  1.0000 0.1201999478
H   H4        1.0  0.59500  0.56300  0.67510  1.0000 0.1201999478
H   H5        1.0  0.79380  0.97670  0.15900  1.0000 0.1201999478
H   H6        1.0  0.20620  0.52330  0.65900  1.0000 0.1201999478
H   H7        1.0  0.82670  0.80870  0.16430  1.0000 0.1092861559
H   H8        1.0  0.17330  0.69130  0.66430  1.0000 0.1092861559
H   H9        1.0  0.64720  0.70450  0.17270  1.0000 0.1201999478
H   H10       1.0  0.35280  0.79550  0.67270  1.0000 0.1201999478
H   H11       1.0  0.47900  0.49440  0.16640  1.0000 0.1201999478
H   H12       1.0  0.52100  0.00560  0.66640  1.0000 0.1201999478
H   H13       1.0  0.27320  0.24470  0.16550  1.0000 0.1201999478
H   H14       1.0  0.72680  0.25530  0.66550  1.0000 0.1201999478
H   H15       1.0  0.66830  0.23690  0.16410  1.0000 0.1201999478
H   H16       1.0  0.33170  0.26310  0.66410  1.0000 0.1201999478
H   H17       1.0  0.42410  0.09530  0.21020  1.0000 0.1201999478
H   H18       1.0  0.57590  0.40470  0.71020  1.0000 0.1201999478
H   H19       1.0  0.40210  0.08950  0.13870  1.0000 0.1041812773
H   H20       1.0  0.59790  0.41050  0.63870  1.0000 0.1041812773
H   H21       1.0  0.80260  0.54060  0.06290  1.0000 0.1092861559
H   H22       1.0  0.19740  0.95940  0.56290  1.0000 0.1092861559
H   H23       1.0  0.78390  0.65940  0.98910  1.0000 0.1405474072
H   H24       1.0  0.21610  0.84060  0.48910  1.0000 0.1405474072
H   H25       1.0  0.09630  0.79320  0.06090  1.0000 0.1405474072
H   H26       1.0  0.90370  0.70680  0.56090  1.0000 0.1405474072
H   H27       1.0  0.11340  0.66790  0.12970  1.0000 0.1092861559
H   H28       1.0  0.88660  0.83210  0.62970  1.0000 0.1092861559
H   H29       1.0  0.07960  0.65170  0.23490  1.0000 0.1092861559
H   H30       1.0  0.92040  0.84830  0.73490  1.0000 0.1092861559
H   H31       1.0  0.06150  0.72750  0.32800  1.0000 0.153889301
H   H32       1.0  0.93850  0.77250  0.82800  1.0000 0.153889301
H   H33       1.0  0.85730  0.49670  0.38930  1.0000 0.1405474072
H   H34       1.0  0.14270  0.00330  0.88930  1.0000 0.1405474072
H   H35       1.0  0.87410  0.42920  0.29330  1.0000 0.1201999478
H   H36       1.0  0.12590  0.07080  0.79330  1.0000 0.1201999478
H   H37       1.0  0.86380  0.79780  0.93570  1.0000 0.1291632305
H   H38       1.0  0.13620  0.70220  0.43570  1.0000 0.1291632305
H   H39       1.0  0.90910  0.87830  0.98260  1.0000 0.1201999478
H   H40       1.0  0.09090  0.62170  0.48260  1.0000 0.1201999478
H   H41       1.0  0.90240  0.73850  0.42360  1.0000 0.1291632305
H   H42       1.0  0.09760  0.76150  0.92360  1.0000 0.1291632305
H   H43       1.0  0.87770  0.63760  0.45610  1.0000 0.1092861559
H   H44       1.0  0.12230  0.86240  0.95610  1.0000 0.1092861559
H   H45       1.0  0.34940  0.37650  0.81100  1.0000 0.3621249373
H   H46       1.0  0.65060  0.12350  0.31100  1.0000 0.3621249373
H   H47       1.0  0.40500  0.06300  0.82490  1.0000 0.1201999478
H   H48       1.0  0.59500  0.43700  0.32490  1.0000 0.1201999478
H   H49       1.0  0.79380  0.02330  0.84100  1.0000 0.1201999478
H   H50       1.0  0.20620  0.47670  0.34100  1.0000 0.1201999478
H   H51       1.0  0.82670  0.19130  0.83570  1.0000 0.1092861559
H   H52       1.0  0.17330  0.30870  0.33570  1.0000 0.1092861559
H   H53       1.0  0.64720  0.29550  0.82730  1.0000 0.1201999478
H   H54       1.0  0.35280  0.20450  0.32730  1.0000 0.1201999478
H   H55       1.0  0.47900  0.50560  0.83360  1.0000 0.1201999478
H   H56       1.0  0.52100  0.99440  0.33360  1.0000 0.1201999478
H   H57       1.0  0.27320  0.75530  0.83450  1.0000 0.1201999478
H   H58       1.0  0.72680  0.74470  0.33450  1.0000 0.1201999478
H   H59       1.0  0.66830  0.76310  0.83590  1.0000 0.1201999478
H   H60       1.0  0.33170  0.73690  0.33590  1.0000 0.1201999478
H   H61       1.0  0.42410  0.90470  0.78980  1.0000 0.1201999478
H   H62       1.0  0.57590  0.59530  0.28980  1.0000 0.1201999478
H   H63       1.0  0.40210  0.91050  0.86130  1.0000 0.1041812773
H   H64       1.0  0.59790  0.58950  0.36130  1.0000 0.1041812773
H   H65       1.0  0.80260  0.45940  0.93710  1.0000 0.1092861559
H   H66       1.0  0.19740  0.04060  0.43710  1.0000 0.1092861559
H   H67       1.0  0.78390  0.34060  0.01090  1.0000 0.1405474072
H   H68       1.0  0.21610  0.15940  0.51090  1.0000 0.1405474072
H   H69       1.0  0.09630  0.20680  0.93910  1.0000 0.1405474072
H   H70       1.0  0.90370  0.29320  0.43910  1.0000 0.1405474072
H   H71       1.0  0.11340  0.33210  0.87030  1.0000 0.1092861559
H   H72       1.0  0.88660  0.16790  0.37030  1.0000 0.1092861559
H   H73       1.0  0.07960  0.34830  0.76510  1.0000 0.1092861559
H   H74       1.0  0.92040  0.15170  0.26510  1.0000 0.1092861559
H   H75       1.0  0.06150  0.27250  0.67200  1.0000 0.153889301
H   H76       1.0  0.93850  0.22750  0.17200  1.0000 0.153889301
H   H77       1.0  0.85730  0.50330  0.61070  1.0000 0.1405474072
H   H78       1.0  0.14270  0.99670  0.11070  1.0000 0.1405474072
H   H79       1.0  0.87410  0.57080  0.70670  1.0000 0.1201999478
H   H80       1.0  0.12590  0.92920  0.20670  1.0000 0.1201999478
H   H81       1.0  0.86380  0.20220  0.06430  1.0000 0.1291632305
H   H82       1.0  0.13620  0.29780  0.56430  1.0000 0.1291632305
H   H83       1.0  0.90910  0.12170  0.01740  1.0000 0.1201999478
H   H84       1.0  0.09090  0.37830  0.51740  1.0000 0.1201999478
H   H85       1.0  0.90240  0.26150  0.57640  1.0000 0.1291632305
H   H86       1.0  0.09760  0.23850  0.07640  1.0000 0.1291632305
H   H87       1.0  0.87770  0.36240  0.54390  1.0000 0.1092861559
H   H88       1.0  0.12230  0.13760  0.04390  1.0000 0.1092861559
C   C1        1.0  0.38940  0.74770  0.17880  1.0000 0.5380383606
C   C2        1.0  0.61060  0.75230  0.67880  1.0000 0.5380383606
C   C3        1.0  0.50800  0.81050  0.17410  1.0000 -0.0208065594
C   C4        1.0  0.49200  0.68950  0.67410  1.0000 -0.0208065594
C   C5        1.0  0.48970  0.91100  0.17238  1.0000 -0.232077524
C   C6        1.0  0.51030  0.58900  0.67238  1.0000 -0.232077524
C   C7        1.0  0.59670  0.97230  0.16670  1.0000 0.2397654827
C   C8        1.0  0.40330  0.52770  0.66667  1.0000 0.2397654827
C   C9        1.0  0.72190  0.93480  0.16320  1.0000 -0.2038173129
C   C10       1.0  0.27810  0.56520  0.66320  1.0000 -0.2038173129
C   C11       1.0  0.74160  0.83420  0.16600  1.0000 -0.0820118461
C   C12       1.0  0.25840  0.66580  0.66600  1.0000 -0.0820118461
C   C13       1.0  0.63440  0.77190  0.17120  1.0000 -0.1272227888
C   C14       1.0  0.36560  0.72810  0.67120  1.0000 -0.1272227888
C   C15       1.0  0.72120  0.43100  0.16800  1.0000 0.5269819375
C   C16       1.0  0.27880  0.06900  0.66800  1.0000 0.5269819375
C   C17       1.0  0.22960  0.43690  0.16520  1.0000 0.5580180164
C   C18       1.0  0.77040  0.06310  0.66520  1.0000 0.5580180164
C   C19       1.0  0.59300  0.37490  0.16480  1.0000 -0.0097905471
C   C20       1.0  0.40700  0.12510  0.66480  1.0000 -0.0097905471
C   C21       1.0  0.47650  0.42630  0.16553  1.0000 -0.1272227888
C   C22       1.0  0.52350  0.07370  0.66553  1.0000 -0.1272227888
C   C23       1.0  0.35530  0.37940  0.16510  1.0000 -0.0208065594
C   C24       1.0  0.64470  0.12060  0.66510  1.0000 -0.0208065594
C   C25       1.0  0.35370  0.27750  0.16570  1.0000 -0.1596457784
C   C26       1.0  0.64630  0.22250  0.66570  1.0000 -0.1596457784
C   C27       1.0  0.46970  0.22430  0.16649  1.0000 0.0862108085
C   C28       1.0  0.53030  0.27570  0.66649  1.0000 0.0862108085
C   C29       1.0  0.59000  0.27250  0.16500  1.0000 -0.1476724346
C   C30       1.0  0.41000  0.22750  0.66500  1.0000 -0.1476724346
C   C31       1.0  0.46040  0.11400  0.17060  1.0000 -0.0637222242
C   C32       1.0  0.53960  0.38600  0.67060  1.0000 -0.0637222242
C   C33       1.0  0.86450  0.59090  0.06170  1.0000 0.0812115615
C   C34       1.0  0.13550  0.90910  0.56170  1.0000 0.0812115615
C   C35       1.0  0.85250  0.66280  0.01750  1.0000 -0.2038173129
C   C36       1.0  0.14750  0.83720  0.51750  1.0000 -0.2038173129
C   C37       1.0  0.93990  0.73920  0.01471  1.0000 0.1677968453
C   C38       1.0  0.06010  0.76080  0.51471  1.0000 0.1677968453
C   C39       1.0  0.03700  0.74120  0.05927  1.0000 -0.2069664125
C   C40       1.0  0.96300  0.75880  0.55927  1.0000 -0.2069664125
C   C41       1.0  0.04550  0.66620  0.10101  1.0000 0.0812115615
C   C42       1.0  0.95450  0.83380  0.60101  1.0000 0.0812115615
C   C43       1.0  0.03220  0.62100  0.26607  1.0000 0.0812115615
C   C44       1.0  0.96780  0.87900  0.76607  1.0000 0.0812115615
C   C45       1.0  0.02250  0.66667  0.32201  1.0000 -0.1873688821
C   C46       1.0  0.97750  0.83340  0.82201  1.0000 -0.1873688821
C   C47       1.0  0.95430  0.62190  0.36962  1.0000 0.1677968453
C   C48       1.0  0.04570  0.87810  0.86962  1.0000 0.1677968453
C   C49       1.0  0.90080  0.53060  0.35821  1.0000 -0.2177483079
C   C50       1.0  0.09920  0.96940  0.85821  1.0000 -0.2177483079
C   C51       1.0  0.91240  0.49000  0.30055  1.0000 0.0812115615
C   C52       1.0  0.08760  0.01000  0.80055  1.0000 0.0812115615
C   C53       1.0  0.93270  0.81570  0.96460  1.0000 -0.232077524
C   C54       1.0  0.06730  0.68430  0.46460  1.0000 -0.232077524
C   C55       1.0  0.93940  0.67390  0.43069  1.0000 -0.2359863103
C   C56       1.0  0.06060  0.82610  0.93069  1.0000 -0.2359863103
C   C57       1.0  0.38940  0.25230  0.82120  1.0000 0.5380383606
C   C58       1.0  0.61060  0.24770  0.32120  1.0000 0.5380383606
C   C59       1.0  0.50800  0.18950  0.82590  1.0000 -0.0208065594
C   C60       1.0  0.49200  0.31050  0.32590  1.0000 -0.0208065594
C   C61       1.0  0.48970  0.08900  0.82762  1.0000 -0.232077524
C   C62       1.0  0.51030  0.41100  0.32762  1.0000 -0.232077524
C   C63       1.0  0.59670  0.02770  0.83330  1.0000 0.2397654827
C   C64       1.0  0.40330  0.47230  0.33333  1.0000 0.2397654827
C   C65       1.0  0.72190  0.06520  0.83680  1.0000 -0.2038173129
C   C66       1.0  0.27810  0.43480  0.33680  1.0000 -0.2038173129
C   C67       1.0  0.74160  0.16580  0.83400  1.0000 -0.0820118461
C   C68       1.0  0.25840  0.33420  0.33400  1.0000 -0.0820118461
C   C69       1.0  0.63440  0.22810  0.82880  1.0000 -0.1272227888
C   C70       1.0  0.36560  0.27190  0.32880  1.0000 -0.1272227888
C   C71       1.0  0.72120  0.56900  0.83200  1.0000 0.5269819375
C   C72       1.0  0.27880  0.93100  0.33200  1.0000 0.5269819375
C   C73       1.0  0.22960  0.56310  0.83480  1.0000 0.5580180164
C   C74       1.0  0.77040  0.93690  0.33480  1.0000 0.5580180164
C   C75       1.0  0.59300  0.62510  0.83520  1.0000 -0.0097905471
C   C76       1.0  0.40700  0.87490  0.33520  1.0000 -0.0097905471
C   C77       1.0  0.47650  0.57370  0.83447  1.0000 -0.1272227888
C   C78       1.0  0.52350  0.92630  0.33447  1.0000 -0.1272227888
C   C79       1.0  0.35530  0.62060  0.83490  1.0000 -0.0208065594
C   C80       1.0  0.64470  0.87940  0.33490  1.0000 -0.0208065594
C   C81       1.0  0.35370  0.72250  0.83430  1.0000 -0.1596457784
C   C82       1.0  0.64630  0.77750  0.33430  1.0000 -0.1596457784
C   C83       1.0  0.46970  0.77570  0.83351  1.0000 0.0862108085
C   C84       1.0  0.53030  0.72430  0.33351  1.0000 0.0862108085
C   C85       1.0  0.59000  0.72750  0.83500  1.0000 -0.1476724346
C   C86       1.0  0.41000  0.77250  0.33500  1.0000 -0.1476724346
C   C87       1.0  0.46040  0.88600  0.82940  1.0000 -0.0637222242
C   C88       1.0  0.53960  0.61400  0.32940  1.0000 -0.0637222242
C   C89       1.0  0.86450  0.40910  0.93830  1.0000 0.0812115615
C   C90       1.0  0.13550  0.09090  0.43830  1.0000 0.0812115615
C   C91       1.0  0.85250  0.33720  0.98250  1.0000 -0.2038173129
C   C92       1.0  0.14750  0.16280  0.48250  1.0000 -0.2038173129
C   C93       1.0  0.93990  0.26080  0.98529  1.0000 0.1677968453
C   C94       1.0  0.06010  0.23920  0.48529  1.0000 0.1677968453
C   C95       1.0  0.03700  0.25880  0.94073  1.0000 -0.2069664125
C   C96       1.0  0.96300  0.24120  0.44073  1.0000 -0.2069664125
C   C97       1.0  0.04550  0.33380  0.89899  1.0000 0.0812115615
C   C98       1.0  0.95450  0.16620  0.39899  1.0000 0.0812115615
C   C99       1.0  0.03220  0.37900  0.73393  1.0000 0.0812115615
C   C100      1.0  0.96780  0.12100  0.23393  1.0000 0.0812115615
C   C101      1.0  0.02250  0.33340  0.67799  1.0000 -0.1873688821
C   C102      1.0  0.97750  0.16660  0.17799  1.0000 -0.1873688821
C   C103      1.0  0.95430  0.37810  0.63038  1.0000 0.1677968453
C   C104      1.0  0.04570  0.12190  0.13038  1.0000 0.1677968453
C   C105      1.0  0.90080  0.46940  0.64179  1.0000 -0.2177483079
C   C106      1.0  0.09920  0.03060  0.14179  1.0000 -0.2177483079
C   C107      1.0  0.91240  0.51000  0.69945  1.0000 0.0812115615
C   C108      1.0  0.08760  0.99000  0.19945  1.0000 0.0812115615
C   C109      1.0  0.93270  0.18430  0.03540  1.0000 -0.232077524
C   C110      1.0  0.06730  0.31570  0.53540  1.0000 -0.232077524
C   C111      1.0  0.93940  0.32610  0.56931  1.0000 -0.2359863103
C   C112      1.0  0.06060  0.17390  0.06931  1.0000 -0.2359863103
N   N1        1.0  0.96190  0.59110  0.10272  1.0000 -0.232077524
N   N2        1.0  0.03810  0.90890  0.60272  1.0000 -0.232077524
N   N3        1.0  0.97650  0.53410  0.25441  1.0000 -0.2359863103
N   N4        1.0  0.02350  0.96590  0.75441  1.0000 -0.2359863103
N   N5        1.0  0.96190  0.40890  0.89728  1.0000 -0.232077524
N   N6        1.0  0.03810  0.09110  0.39728  1.0000 -0.232077524
N   N7        1.0  0.97650  0.46590  0.74559  1.0000 -0.2359863103
N   N8        1.0  0.02350  0.03410  0.24559  1.0000 -0.2359863103
O   O1        1.0  0.41780  0.65540  0.18650  1.0000 -0.4351954584
O   O2        1.0  0.58220  0.84460  0.68650  1.0000 -0.4351954584
O   O3        1.0  0.27760  0.77680  0.17800  1.0000 -0.5137295847
O   O4        1.0  0.72240  0.72320  0.67800  1.0000 -0.5137295847
O   O5        1.0  0.58710  0.07273  0.16347  1.0000 -0.1787311633
O   O6        1.0  0.41290  0.42727  0.66347  1.0000 -0.1787311633
O   O7        1.0  0.82730  0.38481  0.15488  1.0000 -0.5446239535
O   O8        1.0  0.17270  0.11519  0.65488  1.0000 -0.5446239535
O   O9        1.0  0.71910  0.51770  0.18142  1.0000 -0.5332154979
O   O10       1.0  0.28090  0.98230  0.68142  1.0000 -0.5332154979
O   O11       1.0  0.12320  0.39024  0.15700  1.0000 -0.5332154979
O   O12       1.0  0.87680  0.10976  0.65700  1.0000 -0.5332154979
O   O13       1.0  0.23120  0.52740  0.17385  1.0000 -0.5793491129
O   O14       1.0  0.76880  0.97260  0.67385  1.0000 -0.5793491129
O   O15       1.0  0.41780  0.34460  0.81350  1.0000 -0.4351954584
O   O16       1.0  0.58220  0.15540  0.31350  1.0000 -0.4351954584
O   O17       1.0  0.27760  0.22320  0.82200  1.0000 -0.5137295847
O   O18       1.0  0.72240  0.27680  0.32200  1.0000 -0.5137295847
O   O19       1.0  0.58710  0.92727  0.83653  1.0000 -0.1787311633
O   O20       1.0  0.41290  0.57273  0.33653  1.0000 -0.1787311633
O   O21       1.0  0.82730  0.61519  0.84512  1.0000 -0.5446239535
O   O22       1.0  0.17270  0.88481  0.34512  1.0000 -0.5446239535
O   O23       1.0  0.71910  0.48230  0.81858  1.0000 -0.5332154979
O   O24       1.0  0.28090  0.01770  0.31858  1.0000 -0.5332154979
O   O25       1.0  0.12320  0.60976  0.84300  1.0000 -0.5332154979
O   O26       1.0  0.87680  0.89024  0.34300  1.0000 -0.5332154979
O   O27       1.0  0.23120  0.47260  0.82615  1.0000 -0.5793491129
O   O28       1.0  0.76880  0.02740  0.32615  1.0000 -0.5793491129
