# DDEC6 charges by PACMAN v1.1 (https://github.com/mtap-research/PACMAN-charge/)
data_2020[Zn][nan]3[ASR]60
_chemical_formula_sum              "Zn4 H8 C28 N4 O16"
_cell_length_a       7.0585
_cell_length_b       7.0585
_cell_length_c       19.806
_cell_angle_alpha    90
_cell_angle_beta     90
_cell_angle_gamma    90

_symmetry_space_group_name_H-M    "P 1"
_symmetry_Int_Tables_number       1

loop_
  _symmetry_equiv_pos_as_xyz
  'x, y, z'

loop_
  _atom_site_type_symbol
  _atom_site_label
  _atom_site_symmetry_multiplicity
  _atom_site_fract_x
  _atom_site_fract_y
  _atom_site_fract_z
  _atom_site_occupancy
  _atom_site_charge
Zn  Zn1       1.0  0.00000  0.00000  0.27747  1.0000 0.8657740941
Zn  Zn2       1.0  0.50000  0.50000  0.77747  1.0000 0.8657740941
Zn  Zn3       1.0  0.50000  0.50000  0.22253  1.0000 0.8657740941
Zn  Zn4       1.0  0.00000  0.00000  0.72253  1.0000 0.8657740941
H   H1        1.0  0.19658  0.80342  0.05354  1.0000 0.1548371603
H   H2        1.0  0.80342  0.19658  0.05354  1.0000 0.1548371603
H   H3        1.0  0.69658  0.69658  0.55354  1.0000 0.1548371603
H   H4        1.0  0.30342  0.30342  0.55354  1.0000 0.1548371603
H   H5        1.0  0.30342  0.30342  0.44646  1.0000 0.1548371603
H   H6        1.0  0.69658  0.69658  0.44646  1.0000 0.1548371603
H   H7        1.0  0.80342  0.19658  0.94646  1.0000 0.1548371603
H   H8        1.0  0.19658  0.80342  0.94646  1.0000 0.1548371603
C   C1        1.0  0.00000  0.00000  0.03988  1.0000 0.1060409089
C   C2        1.0  0.50000  0.50000  0.53988  1.0000 0.1060409089
C   C3        1.0  0.50000  0.50000  0.46012  1.0000 0.1060409089
C   C4        1.0  0.00000  0.00000  0.96012  1.0000 0.1060409089
C   C5        1.0  0.23550  0.76450  0.19200  1.0000 0.5398228159
C   C6        1.0  0.11138  0.88862  0.07539  1.0000 -0.2222424569
C   C7        1.0  0.10217  0.89783  0.14160  1.0000 0.1730021973
C   C8        1.0  0.76450  0.23550  0.19200  1.0000 0.5398228159
C   C9        1.0  0.88862  0.11138  0.07539  1.0000 -0.2222424569
C   C10       1.0  0.89783  0.10217  0.14160  1.0000 0.1730021973
C   C11       1.0  0.73550  0.73550  0.69200  1.0000 0.5398228159
C   C12       1.0  0.61138  0.61138  0.57539  1.0000 -0.2222424569
C   C13       1.0  0.60217  0.60217  0.64160  1.0000 0.1730021973
C   C14       1.0  0.26450  0.26450  0.69200  1.0000 0.5398228159
C   C15       1.0  0.38862  0.38862  0.57539  1.0000 -0.2222424569
C   C16       1.0  0.39783  0.39783  0.64160  1.0000 0.1730021973
C   C17       1.0  0.26450  0.26450  0.30800  1.0000 0.5398228159
C   C18       1.0  0.38862  0.38862  0.42461  1.0000 -0.2222424569
C   C19       1.0  0.39783  0.39783  0.35840  1.0000 0.1730021973
C   C20       1.0  0.73550  0.73550  0.30800  1.0000 0.5398228159
C   C21       1.0  0.61138  0.61138  0.42461  1.0000 -0.2222424569
C   C22       1.0  0.60217  0.60217  0.35840  1.0000 0.1730021973
C   C23       1.0  0.76450  0.23550  0.80800  1.0000 0.5398228159
C   C24       1.0  0.88862  0.11138  0.92461  1.0000 -0.2222424569
C   C25       1.0  0.89783  0.10217  0.85840  1.0000 0.1730021973
C   C26       1.0  0.23550  0.76450  0.80800  1.0000 0.5398228159
C   C27       1.0  0.11138  0.88862  0.92461  1.0000 -0.2222424569
C   C28       1.0  0.10217  0.89783  0.85840  1.0000 0.1730021973
N   N1        1.0  0.00000  0.00000  0.17630  1.0000 -0.2600111152
N   N2        1.0  0.50000  0.50000  0.67630  1.0000 -0.2600111152
N   N3        1.0  0.50000  0.50000  0.32370  1.0000 -0.2600111152
N   N4        1.0  0.00000  0.00000  0.82370  1.0000 -0.2600111152
O   O1        1.0  0.22770  0.77230  0.25260  1.0000 -0.4544795613
O   O2        1.0  0.77230  0.22770  0.25260  1.0000 -0.4544795613
O   O3        1.0  0.72770  0.72770  0.75260  1.0000 -0.4544795613
O   O4        1.0  0.27230  0.27230  0.75260  1.0000 -0.4544795613
O   O5        1.0  0.27230  0.27230  0.24740  1.0000 -0.4544795613
O   O6        1.0  0.72770  0.72770  0.24740  1.0000 -0.4544795613
O   O7        1.0  0.77230  0.22770  0.74740  1.0000 -0.4544795613
O   O8        1.0  0.22770  0.77230  0.74740  1.0000 -0.4544795613
O   O9        1.0  0.14420  0.14420  0.34060  1.0000 -0.5468420992
O   O10       1.0  0.85580  0.85580  0.34060  1.0000 -0.5468420992
O   O11       1.0  0.35580  0.64420  0.84060  1.0000 -0.5468420992
O   O12       1.0  0.64420  0.35580  0.84060  1.0000 -0.5468420992
O   O13       1.0  0.35580  0.64420  0.15940  1.0000 -0.5468420992
O   O14       1.0  0.64420  0.35580  0.15940  1.0000 -0.5468420992
O   O15       1.0  0.14420  0.14420  0.65940  1.0000 -0.5468420992
O   O16       1.0  0.85580  0.85580  0.65940  1.0000 -0.5468420992
