# DDEC6 charges by PACMAN v1.1 (https://github.com/mtap-research/PACMAN-charge/)
data_c9cc02861g2_FSR_pacman
_symmetry_space_group_name_H-M   'P 1'
_cell_length_a   10.30340000
_cell_length_b   11.76520000
_cell_length_c   20.35700000
_cell_angle_alpha   90.00000000
_cell_angle_beta   90.00000000
_cell_angle_gamma   90.00000000
_symmetry_Int_Tables_number   1
_chemical_formula_structural   Zn2H15C14NO8
_chemical_formula_sum   'Zn8 H60.0 C56 N4 O32'
_cell_volume   2467.70733112
_cell_formula_units_Z   4
loop_
 _symmetry_equiv_pos_site_id
 _symmetry_equiv_pos_as_xyz
  1  'x, y, z'
loop_
 _atom_site_type_symbol
 _atom_site_label
 _atom_site_symmetry_multiplicity
 _atom_site_fract_x
 _atom_site_fract_y
 _atom_site_fract_z
 _atom_site_occupancy
 _atom_site_charge
Zn  Zn1  1  0.15034000  0.32413000  0.50865000  1.0 0.9142207396
Zn  Zn2  1  0.46297000  0.42053000  0.50973000  1.0 0.8879252764
Zn  Zn3  1  0.34966000  0.67587000  0.00865000  1.0 0.9169420692
Zn  Zn4  1  0.03703000  0.57947000  0.00973000  1.0 0.8879252764
Zn  Zn5  1  0.84966000  0.82413000  0.99135000  1.0 0.9142207396
Zn  Zn6  1  0.53703000  0.92053000  0.99027000  1.0 0.8879252764
Zn  Zn7  1  0.65034000  0.17587000  0.49135000  1.0 0.9142207396
Zn  Zn8  1  0.96297000  0.07947000  0.49027000  1.0 0.8879252764
H  H1  1  0.24127000  0.02658000  0.48809000  1.0 0.0899415377
H  H2  1  0.14647000  0.08226000  0.37761000  1.0 0.1275877548
H  H3  1  0.28550000  0.02182000  0.38049000  1.0 0.1216484221
H  H4  1  0.27594000  0.15682000  0.37222000  1.0 0.1216484221
H  H5  1  0.25873000  0.97342000  0.98809000  1.0 0.0899415377
H  H6  1  0.35353000  0.91774000  0.87761000  1.0 0.1275877548
H  H7  1  0.21450000  0.97818000  0.88049000  1.0 0.1216484221
H  H8  1  0.22406000  0.84318000  0.87222000  1.0 0.1275877548
H  H9  1  0.75873000  0.52658000  0.01191000  1.0 0.0899415377
H  H10  1  0.85353000  0.58226000  0.12239000  1.0 0.1275877548
H  H11  1  0.71450000  0.52182000  0.11951000  1.0 0.1216484221
H  H12  1  0.72406000  0.65682000  0.12778000  1.0 0.1216484221
H  H13  1  0.74127000  0.47342000  0.51191000  1.0 0.0899415377
H  H14  1  0.64647000  0.41774000  0.62239000  1.0 0.1275877548
H  H15  1  0.78550000  0.47818000  0.61951000  1.0 0.1216484221
H  H16  1  0.77594000  0.34318000  0.62778000  1.0 0.1275877548
H  H17  1  0.07331000  0.48332000  0.69234000  0.41 0.0808336146
H  H18  1  0.04942000  0.53243000  0.80307000  0.41 0.0697442273
H  H19  1  0.43860000  0.50761000  0.82825000  0.41 0.0899415377
H  H20  1  0.46248000  0.45850000  0.71752000  0.41 0.0899415377
H  H21  1  0.42669000  0.51668000  0.19234000  0.41 0.0808336146
H  H22  1  0.45058000  0.46757000  0.30307000  0.41 0.0697442273
H  H23  1  0.06140000  0.49239000  0.32825000  0.41 0.0899415377
H  H24  1  0.03752000  0.54150000  0.21752000  0.41 0.0899415377
H  H25  1  0.92669000  0.98332000  0.80766000  0.41 0.0808336146
H  H26  1  0.95058000  0.03243000  0.69693000  0.41 0.0697442273
H  H27  1  0.56140000  0.00761000  0.67175000  0.41 0.0899415377
H  H28  1  0.53752000  0.95850000  0.78248000  0.41 0.0899415377
H  H29  1  0.57331000  0.01668000  0.30766000  0.41 0.0808336146
H  H30  1  0.54942000  0.96757000  0.19693000  0.41 0.0697442273
H  H31  1  0.93860000  0.99239000  0.17175000  0.41 0.0899415377
H  H32  1  0.96248000  0.04150000  0.28248000  0.41 0.0899415377
H  H33  1  0.52530000  0.64682000  0.42776000  0.45 0.0978265302
H  H34  1  0.64196000  0.86935000  0.56509000  0.45 0.0899415377
H  H35  1  0.55153000  0.76881000  0.59172000  0.45 0.106850311
H  H36  1  0.69901000  0.74339000  0.57191000  0.45 0.0808336146
H  H37  1  0.62257000  0.92751000  0.47829000  0.45 0.0697442273
H  H38  1  0.66452000  0.84558000  0.41924000  0.45 0.0899415377
H  H39  1  0.51493000  0.87758000  0.42951000  0.45 0.0978265302
H  H40  1  0.97470000  0.35318000  0.92776000  0.45 0.0978265302
H  H41  1  0.85804000  0.13065000  0.06509000  0.45 0.0899415377
H  H42  1  0.94847000  0.23119000  0.09172000  0.45 0.106850311
H  H43  1  0.80099000  0.25661000  0.07191000  0.45 0.0808336146
H  H44  1  0.87743000  0.07249000  0.97829000  0.45 0.0697442273
H  H45  1  0.83548000  0.15442000  0.91924000  0.45 0.0899415377
H  H46  1  0.98507000  0.12242000  0.92951000  0.45 0.0978265302
H  H47  1  0.47470000  0.14682000  0.07224000  0.45 0.0978265302
H  H48  1  0.35804000  0.36935000  0.93491000  0.45 0.0899415377
H  H49  1  0.44847000  0.26881000  0.90828000  0.45 0.106850311
H  H50  1  0.30099000  0.24339000  0.92809000  0.45 0.0808336146
H  H51  1  0.37743000  0.42751000  0.02171000  0.45 0.0697442273
H  H52  1  0.33548000  0.34558000  0.08076000  0.45 0.0899415377
H  H53  1  0.48507000  0.37758000  0.07049000  0.45 0.0978265302
H  H54  1  0.02530000  0.85318000  0.57224000  0.45 0.0978265302
H  H55  1  0.14196000  0.63065000  0.43491000  0.45 0.0899415377
H  H56  1  0.05153000  0.73119000  0.40828000  0.45 0.106850311
H  H57  1  0.19901000  0.75661000  0.42809000  0.45 0.0808336146
H  H58  1  0.12257000  0.57249000  0.52171000  0.45 0.0697442273
H  H59  1  0.16452000  0.65442000  0.58076000  0.45 0.0899415377
H  H60  1  0.01493000  0.62242000  0.57049000  0.45 0.0978265302
H  H61  1  0.47794000  0.64216000  0.43465000  0.55 0.0978265302
H  H62  1  0.74955000  0.85065000  0.49866000  0.55 0.0613398439
H  H63  1  0.66639000  0.78631000  0.55367000  0.55 0.0808336146
H  H64  1  0.77220000  0.71801000  0.51179000  0.55 0.0613398439
H  H65  1  0.66160000  0.89508000  0.41655000  0.55 0.0808336146
H  H66  1  0.61782000  0.79550000  0.36780000  0.55 0.0513907484
H  H67  1  0.51111000  0.86416000  0.40888000  0.55 0.0808336146
H  H68  1  0.02206000  0.35784000  0.93465000  0.55 0.0978265302
H  H69  1  0.75045000  0.14935000  0.99866000  0.55 0.0613398439
H  H70  1  0.83361000  0.21369000  0.05367000  0.55 0.0899415377
H  H71  1  0.72780000  0.28199000  0.01179000  0.55 0.0613398439
H  H72  1  0.83840000  0.10492000  0.91655000  0.55 0.0808336146
H  H73  1  0.88218000  0.20450000  0.86780000  0.55 0.0513907484
H  H74  1  0.98889000  0.13584000  0.90888000  0.55 0.0808336146
H  H75  1  0.52206000  0.14216000  0.06535000  0.55 0.0978265302
H  H76  1  0.25045000  0.35065000  0.00134000  0.55 0.0613398439
H  H77  1  0.33361000  0.28631000  0.94633000  0.55 0.0808336146
H  H78  1  0.22780000  0.21801000  0.98821000  0.55 0.0613398439
H  H79  1  0.33840000  0.39508000  0.08345000  0.55 0.0808336146
H  H80  1  0.38218000  0.29550000  0.13220000  0.55 0.0513907484
H  H81  1  0.48889000  0.36416000  0.09112000  0.55 0.0808336146
H  H82  1  0.97794000  0.85784000  0.56535000  0.55 0.0978265302
H  H83  1  0.24955000  0.64935000  0.50134000  0.55 0.0613398439
H  H84  1  0.16639000  0.71369000  0.44633000  0.55 0.0808336146
H  H85  1  0.27220000  0.78199000  0.48821000  0.55 0.0613398439
H  H86  1  0.16160000  0.60492000  0.58345000  0.55 0.0808336146
H  H87  1  0.11782000  0.70450000  0.63220000  0.55 0.0513907484
H  H88  1  0.01111000  0.63584000  0.59112000  0.55 0.0808336146
H  H89  1  0.08827000  0.38953000  0.70632000  0.59 0.0808336146
H  H90  1  0.06212000  0.43792000  0.81702000  0.59 0.0613398439
H  H91  1  0.41992000  0.58106000  0.81777000  0.59 0.0899415377
H  H92  1  0.44608000  0.53266000  0.70707000  0.59 0.0899415377
H  H93  1  0.41173000  0.61047000  0.20632000  0.59 0.0808336146
H  H94  1  0.43788000  0.56208000  0.31702000  0.59 0.0613398439
H  H95  1  0.08008000  0.41894000  0.31777000  0.59 0.0899415377
H  H96  1  0.05392000  0.46734000  0.20707000  0.59 0.0899415377
H  H97  1  0.91173000  0.88953000  0.79368000  0.59 0.0808336146
H  H98  1  0.93788000  0.93792000  0.68298000  0.59 0.0613398439
H  H99  1  0.58008000  0.08106000  0.68223000  0.59 0.0899415377
H  H100  1  0.55392000  0.03266000  0.79293000  0.59 0.0978265302
H  H101  1  0.58827000  0.11047000  0.29368000  0.59 0.0808336146
H  H102  1  0.56212000  0.06208000  0.18298000  0.59 0.0613398439
H  H103  1  0.91992000  0.91894000  0.18223000  0.59 0.0899415377
H  H104  1  0.94608000  0.96734000  0.29293000  0.59 0.0899415377
C  C1  1  0.28310000  0.43120000  0.62350000  1.0 0.4437807592
C  C2  1  0.22320000  0.54880000  0.89880000  1.0 0.4494061115
C  C3  1  0.36350000  0.16950000  0.48660000  1.0 0.5653269383
C  C4  1  0.23810000  0.10370000  0.46750000  1.0 0.1216484221
C  C5  1  0.23630000  0.08990000  0.39270000  1.0 -0.5465986637
C  C6  1  0.21690000  0.56880000  0.12350000  1.0 0.4437807592
C  C7  1  0.27680000  0.45120000  0.39880000  1.0 0.4494061115
C  C8  1  0.13650000  0.83050000  0.98660000  1.0 0.5653269383
C  C9  1  0.26190000  0.89630000  0.96750000  1.0 0.1216484221
C  C10  1  0.26370000  0.91010000  0.89270000  1.0 -0.5465986637
C  C11  1  0.71690000  0.93120000  0.87650000  1.0 0.4437807592
C  C12  1  0.77680000  0.04880000  0.60120000  1.0 0.4494061115
C  C13  1  0.63650000  0.66950000  0.01340000  1.0 0.5653269383
C  C14  1  0.76190000  0.60370000  0.03250000  1.0 0.1216484221
C  C15  1  0.76370000  0.58990000  0.10730000  1.0 -0.5465986637
C  C16  1  0.78310000  0.06880000  0.37650000  1.0 0.4437807592
C  C17  1  0.72320000  0.95120000  0.10120000  1.0 0.4494061115
C  C18  1  0.86350000  0.33050000  0.51340000  1.0 0.5653269383
C  C19  1  0.73810000  0.39630000  0.53250000  1.0 0.1216484221
C  C20  1  0.73630000  0.41010000  0.60730000  1.0 -0.5465986637
C  C21  1  0.27010000  0.46630000  0.69450000  0.41 -0.0510122155
C  C22  1  0.14750000  0.48830000  0.71990000  0.41 -0.0192161265
C  C23  1  0.13330000  0.51740000  0.78570000  0.41 -0.0192161265
C  C24  1  0.24180000  0.52460000  0.82610000  0.41 -0.0563294663
C  C25  1  0.36440000  0.50270000  0.80070000  0.41 -0.0192161265
C  C26  1  0.37860000  0.47350000  0.73490000  0.41 -0.0391206882
C  C27  1  0.22990000  0.53370000  0.19450000  0.41 -0.0510122155
C  C28  1  0.35250000  0.51170000  0.21990000  0.41 -0.0192161265
C  C29  1  0.36670000  0.48260000  0.28570000  0.41 -0.0192161265
C  C30  1  0.25820000  0.47540000  0.32610000  0.41 -0.0563294663
C  C31  1  0.13560000  0.49730000  0.30070000  0.41 -0.0192161265
C  C32  1  0.12140000  0.52650000  0.23490000  0.41 -0.0391206882
C  C33  1  0.72990000  0.96630000  0.80550000  0.41 -0.0510122155
C  C34  1  0.85250000  0.98830000  0.78010000  0.41 -0.0192161265
C  C35  1  0.86670000  0.01740000  0.71430000  0.41 -0.0192161265
C  C36  1  0.75820000  0.02460000  0.67390000  0.41 -0.0510122155
C  C37  1  0.63560000  0.00270000  0.69930000  0.41 -0.0192161265
C  C38  1  0.62140000  0.97350000  0.76510000  0.41 -0.0391206882
C  C39  1  0.77010000  0.03370000  0.30550000  0.41 -0.0510122155
C  C40  1  0.64750000  0.01170000  0.28010000  0.41 -0.0192161265
C  C41  1  0.63330000  0.98260000  0.21430000  0.41 -0.0192161265
C  C42  1  0.74180000  0.97540000  0.17390000  0.41 -0.0563294663
C  C43  1  0.86440000  0.99730000  0.19930000  0.41 -0.0192161265
C  C44  1  0.87860000  0.02650000  0.26510000  0.41 -0.0391206882
C  C45  1  0.54600000  0.65960000  0.47260000  0.45 -0.1519998071
C  C46  1  0.62200000  0.78800000  0.56120000  0.45 -0.243207669
C  C47  1  0.59700000  0.86100000  0.45190000  0.45 -0.1029556022
C  C48  1  0.95400000  0.34040000  0.97260000  0.45 -0.1519998071
C  C49  1  0.87800000  0.21200000  0.06120000  0.45 -0.243207669
C  C50  1  0.90300000  0.13900000  0.95190000  0.45 -0.1029556022
C  C51  1  0.45400000  0.15960000  0.02740000  0.45 -0.1519998071
C  C52  1  0.37800000  0.28800000  0.93880000  0.45 -0.243207669
C  C53  1  0.40300000  0.36100000  0.04810000  0.45 -0.1029556022
C  C54  1  0.04600000  0.84040000  0.52740000  0.45 -0.1519998071
C  C55  1  0.12200000  0.71200000  0.43880000  0.45 -0.243207669
C  C56  1  0.09700000  0.63900000  0.54810000  0.45 -0.1029556022
C  C57  1  0.53900000  0.65580000  0.46870000  0.55 -0.2030136121
C  C58  1  0.70700000  0.77900000  0.51040000  0.55 -0.1091311631
C  C59  1  0.59900000  0.83300000  0.40970000  0.55 -0.2288210523
C  C60  1  0.96100000  0.34420000  0.96870000  0.55 -0.2030136121
C  C61  1  0.79300000  0.22100000  0.01040000  0.55 -0.1091311631
C  C62  1  0.90100000  0.16700000  0.90970000  0.55 -0.2288210523
C  C63  1  0.46100000  0.15580000  0.03130000  0.55 -0.2030136121
C  C64  1  0.29300000  0.27900000  0.98960000  0.55 -0.1091311631
C  C65  1  0.40100000  0.33300000  0.09030000  0.55 -0.2288210523
C  C66  1  0.03900000  0.84420000  0.53130000  0.55 -0.2030136121
C  C67  1  0.20700000  0.72100000  0.48960000  0.55 -0.1091311631
C  C68  1  0.09900000  0.66700000  0.59030000  0.55 -0.2288210523
C  C69  1  0.26960000  0.45650000  0.69630000  0.59 -0.0391206882
C  C70  1  0.15560000  0.42840000  0.72890000  0.59 -0.0055644183
C  C71  1  0.14010000  0.45720000  0.79470000  0.59 -0.0329423865
C  C72  1  0.23860000  0.51400000  0.82780000  0.59 -0.0563294663
C  C73  1  0.35260000  0.54220000  0.79510000  0.59 -0.0329423865
C  C74  1  0.36810000  0.51340000  0.72940000  0.59 -0.0510122155
C  C75  1  0.23040000  0.54350000  0.19630000  0.59 -0.0391206882
C  C76  1  0.34440000  0.57160000  0.22890000  0.59 -0.0055644183
C  C77  1  0.35990000  0.54280000  0.29470000  0.59 -0.0329423865
C  C78  1  0.26140000  0.48600000  0.32780000  0.59 -0.0563294663
C  C79  1  0.14740000  0.45780000  0.29510000  0.59 -0.0329423865
C  C80  1  0.13190000  0.48660000  0.22940000  0.59 -0.0510122155
C  C81  1  0.73040000  0.95650000  0.80370000  0.59 -0.0391206882
C  C82  1  0.84440000  0.92840000  0.77110000  0.59 -0.0045430704
C  C83  1  0.85990000  0.95720000  0.70530000  0.59 -0.0329423865
C  C84  1  0.76140000  0.01400000  0.67220000  0.59 -0.0563294663
C  C85  1  0.64740000  0.04220000  0.70490000  0.59 -0.0329423865
C  C86  1  0.63190000  0.01340000  0.77060000  0.59 -0.0510122155
C  C87  1  0.76960000  0.04350000  0.30370000  0.59 -0.0391206882
C  C88  1  0.65560000  0.07160000  0.27110000  0.59 -0.0055644183
C  C89  1  0.64010000  0.04280000  0.20530000  0.59 -0.0329423865
C  C90  1  0.73860000  0.98600000  0.17220000  0.59 -0.0563294663
C  C91  1  0.85260000  0.95780000  0.20490000  0.59 -0.0329423865
C  C92  1  0.86810000  0.98660000  0.27060000  0.59 -0.0510122155
N  N1  1  0.58100000  0.76330000  0.49450000  0.45 0.1977062168
N  N2  1  0.91900000  0.23670000  0.99450000  0.45 0.1977062168
N  N3  1  0.41900000  0.26330000  0.00550000  0.45 0.1977062168
N  N4  1  0.08100000  0.73670000  0.50550000  0.45 0.1977062168
N  N5  1  0.61060000  0.75200000  0.46250000  0.55 0.162124412
N  N6  1  0.88940000  0.24800000  0.96250000  0.55 0.162124412
N  N7  1  0.38940000  0.25200000  0.03750000  0.55 0.162124412
N  N8  1  0.11060000  0.74800000  0.53750000  0.55 0.162124412
O  O1  1  0.18650000  0.38850000  0.59680000  1.0 -0.5073429254
O  O2  1  0.39150000  0.45370000  0.59770000  1.0 -0.5341623249
O  O3  1  0.11330000  0.54010000  0.92260000  1.0 -0.5193152932
O  O4  1  0.32450000  0.58100000  0.92880000  1.0 -0.5351371673
O  O5  1  0.34840000  0.27010000  0.50560000  1.0 -0.5575268773
O  O6  1  0.46770000  0.11960000  0.47980000  1.0 -0.5193152932
O  O7  1  0.12700000  0.16100000  0.49080000  1.0 -0.5787279216
O  O8  1  0.54300000  0.58410000  0.51220000  1.0 -0.2537808885
O  O9  1  0.31350000  0.61150000  0.09680000  1.0 -0.5073429254
O  O10  1  0.10850000  0.54630000  0.09770000  1.0 -0.5341623249
O  O11  1  0.38670000  0.45990000  0.42260000  1.0 -0.5193152932
O  O12  1  0.17550000  0.41900000  0.42880000  1.0 -0.5341623249
O  O13  1  0.15160000  0.72990000  0.00560000  1.0 -0.5575268773
O  O14  1  0.03230000  0.88040000  0.97980000  1.0 -0.5193152932
O  O15  1  0.37300000  0.83900000  0.99080000  1.0 -0.5787279216
O  O16  1  0.95700000  0.41590000  0.01220000  1.0 -0.2537808885
O  O17  1  0.81350000  0.88850000  0.90320000  1.0 -0.5073429254
O  O18  1  0.60850000  0.95370000  0.90230000  1.0 -0.5341623249
O  O19  1  0.88670000  0.04010000  0.57740000  1.0 -0.5193152932
O  O20  1  0.67550000  0.08100000  0.57120000  1.0 -0.5341623249
O  O21  1  0.65160000  0.77010000  0.99440000  1.0 -0.5575268773
O  O22  1  0.53230000  0.61960000  0.02020000  1.0 -0.5193152932
O  O23  1  0.87300000  0.66100000  0.00920000  1.0 -0.5787279216
O  O24  1  0.45700000  0.08410000  0.98780000  1.0 -0.2537808885
O  O25  1  0.68650000  0.11150000  0.40320000  1.0 -0.5073429254
O  O26  1  0.89150000  0.04630000  0.40230000  1.0 -0.5341623249
O  O27  1  0.61330000  0.95990000  0.07740000  1.0 -0.5193152932
O  O28  1  0.82450000  0.91900000  0.07120000  1.0 -0.5341623249
O  O29  1  0.84840000  0.22990000  0.49440000  1.0 -0.5575268773
O  O30  1  0.96770000  0.38040000  0.52020000  1.0 -0.5193152932
O  O31  1  0.62700000  0.33900000  0.50920000  1.0 -0.5787279216
O  O32  1  0.04300000  0.91590000  0.48780000  1.0 -0.2537808885
