# DDEC6 charges by PACMAN v1.1 (https://github.com/mtap-research/PACMAN-charge/)
data_c5dt03710g2_13_ASR_pacman
_symmetry_space_group_name_H-M   'P 1'
_cell_length_a   13.57790000
_cell_length_b   16.98820000
_cell_length_c   9.61920000
_cell_angle_alpha   90.00000000
_cell_angle_beta   90.00000000
_cell_angle_gamma   90.00000000
_symmetry_Int_Tables_number   1
_chemical_formula_structural   ZnH9C11NO4
_chemical_formula_sum   'Zn4 H36 C44 N4 O16'
_cell_volume   2218.80392584
_cell_formula_units_Z   4
loop_
 _symmetry_equiv_pos_site_id
 _symmetry_equiv_pos_as_xyz
  1  'x, y, z'
loop_
 _atom_site_type_symbol
 _atom_site_label
 _atom_site_symmetry_multiplicity
 _atom_site_fract_x
 _atom_site_fract_y
 _atom_site_fract_z
 _atom_site_occupancy
 _atom_site_charge
Zn  Zn1  1  0.50000000  0.50000000  0.34787000  1.0 0.764204487
Zn  Zn2  1  0.50000000  0.50000000  0.65213000  1.0 0.764204487
Zn  Zn3  1  0.00000000  0.00000000  0.34787000  1.0 0.764204487
Zn  Zn4  1  0.00000000  0.00000000  0.65213000  1.0 0.764204487
H  H1  1  0.69860000  0.69460000  0.71300000  1.0 0.1205282648
H  H2  1  0.30140000  0.30540000  0.71300000  1.0 0.1205282648
H  H3  1  0.30140000  0.69460000  0.28700000  1.0 0.1205282648
H  H4  1  0.69860000  0.30540000  0.28700000  1.0 0.1205282648
H  H5  1  0.19860000  0.19460000  0.71300000  1.0 0.1205282648
H  H6  1  0.80140000  0.80540000  0.71300000  1.0 0.1205282648
H  H7  1  0.80140000  0.19460000  0.28700000  1.0 0.1205282648
H  H8  1  0.19860000  0.80540000  0.28700000  1.0 0.1205282648
H  H9  1  0.30140000  0.30540000  0.28700000  1.0 0.1205282648
H  H10  1  0.69860000  0.69460000  0.28700000  1.0 0.1205282648
H  H11  1  0.69860000  0.30540000  0.71300000  1.0 0.1205282648
H  H12  1  0.30140000  0.69460000  0.71300000  1.0 0.1205282648
H  H13  1  0.80140000  0.80540000  0.28700000  1.0 0.1205282648
H  H14  1  0.19860000  0.19460000  0.28700000  1.0 0.1205282648
H  H15  1  0.19860000  0.80540000  0.71300000  1.0 0.1205282648
H  H16  1  0.80140000  0.19460000  0.71300000  1.0 0.1205282648
H  H17  1  0.44100000  0.39130000  0.11420000  0.25 0.0913336302
H  H18  1  0.55900000  0.60870000  0.11420000  0.25 0.0913336302
H  H19  1  0.55900000  0.39130000  0.88580000  0.25 0.0913336302
H  H20  1  0.44100000  0.60870000  0.88580000  0.25 0.0913336302
H  H21  1  0.94100000  0.89130000  0.11420000  0.25 0.0913336302
H  H22  1  0.05900000  0.10870000  0.11420000  0.25 0.0913336302
H  H23  1  0.05900000  0.89130000  0.88580000  0.25 0.0913336302
H  H24  1  0.94100000  0.10870000  0.88580000  0.25 0.0913336302
H  H25  1  0.55900000  0.60870000  0.88580000  0.25 0.0913336302
H  H26  1  0.44100000  0.39130000  0.88580000  0.25 0.0913336302
H  H27  1  0.44100000  0.60870000  0.11420000  0.25 0.0913336302
H  H28  1  0.55900000  0.39130000  0.11420000  0.25 0.0913336302
H  H29  1  0.05900000  0.10870000  0.88580000  0.25 0.0913336302
H  H30  1  0.94100000  0.89130000  0.88580000  0.25 0.0913336302
H  H31  1  0.94100000  0.10870000  0.11420000  0.25 0.0913336302
H  H32  1  0.05900000  0.89130000  0.11420000  0.25 0.0913336302
H  H33  1  0.35250000  0.48550000  0.11430000  0.5 0.0913336302
H  H34  1  0.64750000  0.51450000  0.11430000  0.5 0.0913336302
H  H35  1  0.64750000  0.48550000  0.88570000  0.5 0.0913336302
H  H36  1  0.35250000  0.51450000  0.88570000  0.5 0.0913336302
H  H37  1  0.85250000  0.98550000  0.11430000  0.5 0.0913336302
H  H38  1  0.14750000  0.01450000  0.11430000  0.5 0.0913336302
H  H39  1  0.14750000  0.98550000  0.88570000  0.5 0.0913336302
H  H40  1  0.85250000  0.01450000  0.88570000  0.5 0.0913336302
H  H41  1  0.64750000  0.51450000  0.88570000  0.5 0.0913336302
H  H42  1  0.35250000  0.48550000  0.88570000  0.5 0.0913336302
H  H43  1  0.35250000  0.51450000  0.11430000  0.5 0.0913336302
H  H44  1  0.64750000  0.48550000  0.11430000  0.5 0.0913336302
H  H45  1  0.14750000  0.01450000  0.88570000  0.5 0.0913336302
H  H46  1  0.85250000  0.98550000  0.88570000  0.5 0.0913336302
H  H47  1  0.85250000  0.01450000  0.11430000  0.5 0.0913336302
H  H48  1  0.14750000  0.98550000  0.11430000  0.5 0.0913336302
H  H49  1  0.41220000  0.40410000  0.11430000  0.5 0.0913336302
H  H50  1  0.58780000  0.59590000  0.11430000  0.5 0.0913336302
H  H51  1  0.58780000  0.40410000  0.88570000  0.5 0.0913336302
H  H52  1  0.41220000  0.59590000  0.88570000  0.5 0.0913336302
H  H53  1  0.91220000  0.90410000  0.11430000  0.5 0.0913336302
H  H54  1  0.08780000  0.09590000  0.11430000  0.5 0.0913336302
H  H55  1  0.08780000  0.90410000  0.88570000  0.5 0.0913336302
H  H56  1  0.91220000  0.09590000  0.88570000  0.5 0.0913336302
H  H57  1  0.58780000  0.59590000  0.88570000  0.5 0.0913336302
H  H58  1  0.41220000  0.40410000  0.88570000  0.5 0.0913336302
H  H59  1  0.41220000  0.59590000  0.11430000  0.5 0.0913336302
H  H60  1  0.58780000  0.40410000  0.11430000  0.5 0.0913336302
H  H61  1  0.08780000  0.09590000  0.88570000  0.5 0.0913336302
H  H62  1  0.91220000  0.90410000  0.88570000  0.5 0.0913336302
H  H63  1  0.91220000  0.09590000  0.11430000  0.5 0.0913336302
H  H64  1  0.08780000  0.90410000  0.11430000  0.5 0.0913336302
C  C1  1  0.62660000  0.61112000  0.50000000  1.0 0.5576619653
C  C2  1  0.37340000  0.38888000  0.50000000  1.0 0.5576619653
C  C3  1  0.37340000  0.61112000  0.50000000  1.0 0.5576619653
C  C4  1  0.62660000  0.38888000  0.50000000  1.0 0.5576619653
C  C5  1  0.12660000  0.11112000  0.50000000  1.0 0.5576619653
C  C6  1  0.87340000  0.88888000  0.50000000  1.0 0.5576619653
C  C7  1  0.87340000  0.11112000  0.50000000  1.0 0.5576619653
C  C8  1  0.12660000  0.88888000  0.50000000  1.0 0.5576619653
C  C9  1  0.69060000  0.68297000  0.50000000  1.0 -0.0127627683
C  C10  1  0.30940000  0.31703000  0.50000000  1.0 -0.0127627683
C  C11  1  0.30940000  0.68297000  0.50000000  1.0 -0.0127627683
C  C12  1  0.69060000  0.31703000  0.50000000  1.0 -0.0127627683
C  C13  1  0.19060000  0.18297000  0.50000000  1.0 -0.0127627683
C  C14  1  0.80940000  0.81703000  0.50000000  1.0 -0.0127627683
C  C15  1  0.80940000  0.18297000  0.50000000  1.0 -0.0127627683
C  C16  1  0.19060000  0.81703000  0.50000000  1.0 -0.0127627683
C  C17  1  0.72000000  0.71693000  0.62750000  1.0 -0.1208605157
C  C18  1  0.28000000  0.28307000  0.62750000  1.0 -0.1208605157
C  C19  1  0.28000000  0.71693000  0.37250000  1.0 -0.1208605157
C  C20  1  0.72000000  0.28307000  0.37250000  1.0 -0.1208605157
C  C21  1  0.22000000  0.21693000  0.62750000  1.0 -0.1208605157
C  C22  1  0.78000000  0.78307000  0.62750000  1.0 -0.1208605157
C  C23  1  0.78000000  0.21693000  0.37250000  1.0 -0.1208605157
C  C24  1  0.22000000  0.78307000  0.37250000  1.0 -0.1208605157
C  C25  1  0.28000000  0.28307000  0.37250000  1.0 -0.1208605157
C  C26  1  0.72000000  0.71693000  0.37250000  1.0 -0.1208605157
C  C27  1  0.72000000  0.28307000  0.62750000  1.0 -0.1208605157
C  C28  1  0.28000000  0.71693000  0.62750000  1.0 -0.1208605157
C  C29  1  0.78000000  0.78307000  0.37250000  1.0 -0.1208605157
C  C30  1  0.22000000  0.21693000  0.37250000  1.0 -0.1208605157
C  C31  1  0.22000000  0.78307000  0.62750000  1.0 -0.1208605157
C  C32  1  0.78000000  0.21693000  0.62750000  1.0 -0.1208605157
C  C33  1  0.50000000  0.41950000  0.07990000  0.5 -0.1208605157
C  C34  1  0.50000000  0.58050000  0.07990000  0.5 -0.1208605157
C  C35  1  0.50000000  0.41950000  0.92010000  0.5 -0.1208605157
C  C36  1  0.50000000  0.58050000  0.92010000  0.5 -0.1208605157
C  C37  1  0.00000000  0.91950000  0.07990000  0.5 -0.1208605157
C  C38  1  0.00000000  0.08050000  0.07990000  0.5 -0.1208605157
C  C39  1  0.00000000  0.91950000  0.92010000  0.5 -0.1208605157
C  C40  1  0.00000000  0.08050000  0.92010000  0.5 -0.1208605157
C  C41  1  0.41270000  0.45910000  0.07990000  0.5 -0.1208605157
C  C42  1  0.58730000  0.54090000  0.07990000  0.5 -0.1208605157
C  C43  1  0.58730000  0.45910000  0.92010000  0.5 -0.1208605157
C  C44  1  0.41270000  0.54090000  0.92010000  0.5 -0.1208605157
C  C45  1  0.91270000  0.95910000  0.07990000  0.5 -0.1208605157
C  C46  1  0.08730000  0.04090000  0.07990000  0.5 -0.1208605157
C  C47  1  0.08730000  0.95910000  0.92010000  0.5 -0.1208605157
C  C48  1  0.91270000  0.04090000  0.92010000  0.5 -0.1208605157
C  C49  1  0.58730000  0.54090000  0.92010000  0.5 -0.1208605157
C  C50  1  0.41270000  0.45910000  0.92010000  0.5 -0.1208605157
C  C51  1  0.41270000  0.54090000  0.07990000  0.5 -0.1208605157
C  C52  1  0.58730000  0.45910000  0.07990000  0.5 -0.1208605157
C  C53  1  0.08730000  0.04090000  0.92010000  0.5 -0.1208605157
C  C54  1  0.91270000  0.95910000  0.92010000  0.5 -0.1208605157
C  C55  1  0.91270000  0.04090000  0.07990000  0.5 -0.1208605157
C  C56  1  0.08730000  0.95910000  0.07990000  0.5 -0.1208605157
N  N1  1  0.50000000  0.50000000  0.13380000  1.0 -0.0834327304
N  N2  1  0.50000000  0.50000000  0.86620000  1.0 -0.0834327304
N  N3  1  0.00000000  0.00000000  0.13380000  1.0 -0.0834327304
N  N4  1  0.00000000  0.00000000  0.86620000  1.0 -0.0834327304
O  O1  1  0.60181000  0.58433000  0.38470000  1.0 -0.5349829944
O  O2  1  0.39819000  0.41567000  0.38470000  1.0 -0.5349829944
O  O3  1  0.39819000  0.58433000  0.61530000  1.0 -0.5349829944
O  O4  1  0.60181000  0.41567000  0.61530000  1.0 -0.5349829944
O  O5  1  0.10181000  0.08433000  0.38470000  1.0 -0.5349829944
O  O6  1  0.89819000  0.91567000  0.38470000  1.0 -0.5349829944
O  O7  1  0.89819000  0.08433000  0.61530000  1.0 -0.5349829944
O  O8  1  0.10181000  0.91567000  0.61530000  1.0 -0.5355815442
O  O9  1  0.39819000  0.41567000  0.61530000  1.0 -0.5349829944
O  O10  1  0.60181000  0.58433000  0.61530000  1.0 -0.5349829944
O  O11  1  0.60181000  0.41567000  0.38470000  1.0 -0.5349829944
O  O12  1  0.39819000  0.58433000  0.38470000  1.0 -0.5349829944
O  O13  1  0.89819000  0.91567000  0.61530000  1.0 -0.5349829944
O  O14  1  0.10181000  0.08433000  0.61530000  1.0 -0.5349829944
O  O15  1  0.10181000  0.91567000  0.38470000  1.0 -0.5349829944
O  O16  1  0.89819000  0.08433000  0.38470000  1.0 -0.5349829944
