# DDEC6 charges by PACMAN v1.1 (https://github.com/mtap-research/PACMAN-charge/)
data_2022[In][nan]3[ASR]1
_chemical_formula_sum              "In4 H4 C16 O20"
_cell_length_a       9.8021
_cell_length_b       9.8021
_cell_length_c       12.812
_cell_angle_alpha    90
_cell_angle_beta     90
_cell_angle_gamma    90

_symmetry_space_group_name_H-M    "P 1"
_symmetry_Int_Tables_number       1

loop_
  _symmetry_equiv_pos_as_xyz
  'x, y, z'

loop_
  _atom_site_type_symbol
  _atom_site_label
  _atom_site_symmetry_multiplicity
  _atom_site_fract_x
  _atom_site_fract_y
  _atom_site_fract_z
  _atom_site_occupancy
  _atom_site_charge
In  In1       1.0  0.50000  0.61899  0.50000  1.0000 1.5507852704
In  In2       1.0  0.50000  0.38101  0.00000  1.0000 1.5507852704
In  In3       1.0  0.38101  0.50000  0.75000  1.0000 1.5507852704
In  In4       1.0  0.61899  0.50000  0.25000  1.0000 1.5507852704
H   H1        1.0  0.41681  0.41681  0.37500  1.0000 0.4077291162
H   H2        1.0  0.58318  0.58318  0.87500  1.0000 0.4077291162
H   H3        1.0  0.58318  0.41681  0.62500  1.0000 0.4077291162
H   H4        1.0  0.41681  0.58318  0.12500  1.0000 0.4077291162
C   C1        1.0  0.55640  0.80560  0.31063  1.0000 0.6387274907
C   C2        1.0  0.44360  0.19440  0.81063  1.0000 0.6387274907
C   C3        1.0  0.19440  0.55640  0.56063  1.0000 0.6387274907
C   C4        1.0  0.80560  0.44360  0.06063  1.0000 0.6387274907
C   C5        1.0  0.44360  0.80560  0.68937  1.0000 0.6387274907
C   C6        1.0  0.55640  0.19440  0.18937  1.0000 0.6387274907
C   C7        1.0  0.80560  0.55640  0.43937  1.0000 0.6387274907
C   C8        1.0  0.19440  0.44360  0.93937  1.0000 0.6387274907
C   C9        1.0  0.55530  0.94400  0.26710  1.0000 -0.0510236566
C   C10       1.0  0.44470  0.05600  0.76710  1.0000 -0.0510236566
C   C11       1.0  0.05600  0.55530  0.51710  1.0000 -0.0510236566
C   C12       1.0  0.94400  0.44470  0.01710  1.0000 -0.0510236566
C   C13       1.0  0.44470  0.94400  0.73290  1.0000 -0.0510236566
C   C14       1.0  0.55530  0.05600  0.23290  1.0000 -0.0510236566
C   C15       1.0  0.94400  0.55530  0.48290  1.0000 -0.0510236566
C   C16       1.0  0.05600  0.44470  0.98290  1.0000 -0.0510236566
O   O1        1.0  0.48535  0.48535  0.37500  1.0000 -0.8901974588
O   O2        1.0  0.51465  0.51465  0.87500  1.0000 -0.8901974588
O   O3        1.0  0.51465  0.48535  0.62500  1.0000 -0.8901974588
O   O4        1.0  0.48535  0.51465  0.12500  1.0000 -0.8901974588
O   O5        1.0  0.48882  0.78840  0.39190  1.0000 -0.5477122023
O   O6        1.0  0.51118  0.21160  0.89190  1.0000 -0.5477122023
O   O7        1.0  0.21160  0.48882  0.64190  1.0000 -0.5477122023
O   O8        1.0  0.78840  0.51118  0.14190  1.0000 -0.5477122023
O   O9        1.0  0.51118  0.78840  0.60810  1.0000 -0.5477122023
O   O10       1.0  0.48882  0.21160  0.10810  1.0000 -0.5477122023
O   O11       1.0  0.78840  0.48882  0.35810  1.0000 -0.5477122023
O   O12       1.0  0.21160  0.51118  0.85810  1.0000 -0.5477122023
O   O13       1.0  0.62843  0.72099  0.26194  1.0000 -0.572949457
O   O14       1.0  0.37157  0.27901  0.76194  1.0000 -0.572949457
O   O15       1.0  0.27901  0.62843  0.51194  1.0000 -0.572949457
O   O16       1.0  0.72099  0.37157  0.01194  1.0000 -0.5753507345
O   O17       1.0  0.37157  0.72099  0.73806  1.0000 -0.572949457
O   O18       1.0  0.62843  0.27901  0.23806  1.0000 -0.5753507345
O   O19       1.0  0.72099  0.62843  0.48806  1.0000 -0.5753507345
O   O20       1.0  0.27901  0.37157  0.98806  1.0000 -0.5753507345
