# DDEC6 charges by PACMAN v1.1 (https://github.com/mtap-research/PACMAN-charge/)
data_ja8b13639_si_003_ASR_pacman
_symmetry_space_group_name_H-M   'P 1'
_cell_length_a   12.73500000
_cell_length_b   12.73500000
_cell_length_c   12.73500000
_cell_angle_alpha   90.00000000
_cell_angle_beta   90.00000000
_cell_angle_gamma   90.00000000
_symmetry_Int_Tables_number   1
_chemical_formula_structural   Zn8(C12O5)5
_chemical_formula_sum   'Zn8 C60 O25'
_cell_volume   2065.36516537
_cell_formula_units_Z   1
loop_
 _symmetry_equiv_pos_site_id
 _symmetry_equiv_pos_as_xyz
  1  'x, y, z'
loop_
 _atom_site_type_symbol
 _atom_site_label
 _atom_site_symmetry_multiplicity
 _atom_site_fract_x
 _atom_site_fract_y
 _atom_site_fract_z
 _atom_site_occupancy
 _atom_site_charge
Zn  Zn1  1  0.41229000  0.41229000  0.41229000  1.0 0.4161444652
Zn  Zn2  1  0.58771000  0.58771000  0.41229000  1.0 0.4161444652
Zn  Zn3  1  0.58771000  0.41229000  0.58771000  1.0 0.4161444652
Zn  Zn4  1  0.41229000  0.58771000  0.58771000  1.0 0.4161444652
Zn  Zn5  1  0.41229000  0.41229000  0.58771000  1.0 0.4161444652
Zn  Zn6  1  0.58771000  0.58771000  0.58771000  1.0 0.4161444652
Zn  Zn7  1  0.41229000  0.58771000  0.41229000  1.0 0.4161444652
Zn  Zn8  1  0.58771000  0.41229000  0.41229000  1.0 0.4161444652
C  C1  1  0.03810000  0.45940000  0.59280000  1.0 -0.0339281743
C  C2  1  0.96190000  0.54060000  0.59280000  1.0 -0.0339281743
C  C3  1  0.96190000  0.45940000  0.40720000  1.0 -0.0339281743
C  C4  1  0.03810000  0.54060000  0.40720000  1.0 -0.0339281743
C  C5  1  0.59280000  0.03810000  0.45940000  1.0 -0.0339281743
C  C6  1  0.59280000  0.96190000  0.54060000  1.0 -0.0339281743
C  C7  1  0.40720000  0.96190000  0.45940000  1.0 -0.0339281743
C  C8  1  0.40720000  0.03810000  0.54060000  1.0 -0.0339281743
C  C9  1  0.45940000  0.59280000  0.03810000  1.0 -0.0339281743
C  C10  1  0.54060000  0.59280000  0.96190000  1.0 -0.0339281743
C  C11  1  0.45940000  0.40720000  0.96190000  1.0 -0.0339281743
C  C12  1  0.54060000  0.40720000  0.03810000  1.0 -0.0339281743
C  C13  1  0.45940000  0.03810000  0.40720000  1.0 -0.0339281743
C  C14  1  0.54060000  0.96190000  0.40720000  1.0 -0.0339281743
C  C15  1  0.45940000  0.96190000  0.59280000  1.0 -0.0339281743
C  C16  1  0.54060000  0.03810000  0.59280000  1.0 -0.0339281743
C  C17  1  0.03810000  0.59280000  0.54060000  1.0 -0.0339281743
C  C18  1  0.96190000  0.59280000  0.45940000  1.0 -0.0339281743
C  C19  1  0.96190000  0.40720000  0.54060000  1.0 -0.0339281743
C  C20  1  0.03810000  0.40720000  0.45940000  1.0 -0.0339281743
C  C21  1  0.59280000  0.45940000  0.96190000  1.0 -0.0339281743
C  C22  1  0.59280000  0.54060000  0.03810000  1.0 -0.0339281743
C  C23  1  0.40720000  0.45940000  0.03810000  1.0 -0.0339281743
C  C24  1  0.40720000  0.54060000  0.96190000  1.0 -0.0339281743
C  C25  1  0.96190000  0.54060000  0.40720000  1.0 -0.0339281743
C  C26  1  0.03810000  0.45940000  0.40720000  1.0 -0.0339281743
C  C27  1  0.03810000  0.54060000  0.59280000  1.0 -0.0339281743
C  C28  1  0.96190000  0.45940000  0.59280000  1.0 -0.0339281743
C  C29  1  0.40720000  0.96190000  0.54060000  1.0 -0.0339281743
C  C30  1  0.40720000  0.03810000  0.45940000  1.0 -0.0339281743
C  C31  1  0.59280000  0.03810000  0.54060000  1.0 -0.0339281743
C  C32  1  0.59280000  0.96190000  0.45940000  1.0 -0.0339281743
C  C33  1  0.54060000  0.40720000  0.96190000  1.0 -0.0339281743
C  C34  1  0.45940000  0.40720000  0.03810000  1.0 -0.0339281743
C  C35  1  0.54060000  0.59280000  0.03810000  1.0 -0.0339281743
C  C36  1  0.45940000  0.59280000  0.96190000  1.0 -0.0339281743
C  C37  1  0.54060000  0.96190000  0.59280000  1.0 -0.0339281743
C  C38  1  0.45940000  0.03810000  0.59280000  1.0 -0.0339281743
C  C39  1  0.54060000  0.03810000  0.40720000  1.0 -0.0339281743
C  C40  1  0.45940000  0.96190000  0.40720000  1.0 -0.0339281743
C  C41  1  0.96190000  0.40720000  0.45940000  1.0 -0.0339281743
C  C42  1  0.03810000  0.40720000  0.54060000  1.0 -0.0339281743
C  C43  1  0.03810000  0.59280000  0.45940000  1.0 -0.0339281743
C  C44  1  0.96190000  0.59280000  0.54060000  1.0 -0.0339281743
C  C45  1  0.40720000  0.54060000  0.03810000  1.0 -0.0339281743
C  C46  1  0.40720000  0.45940000  0.96190000  1.0 -0.0339281743
C  C47  1  0.59280000  0.54060000  0.96190000  1.0 -0.0339281743
C  C48  1  0.59280000  0.45940000  0.03810000  1.0 -0.0339281743
C  C49  1  0.22330000  0.50000000  0.50000000  1.0 0.3182124245
C  C50  1  0.10590000  0.50000000  0.50000000  1.0 0.023999199
C  C51  1  0.77670000  0.50000000  0.50000000  1.0 0.3182124245
C  C52  1  0.89410000  0.50000000  0.50000000  1.0 0.023999199
C  C53  1  0.50000000  0.22330000  0.50000000  1.0 0.3182124245
C  C54  1  0.50000000  0.10590000  0.50000000  1.0 0.023999199
C  C55  1  0.50000000  0.77670000  0.50000000  1.0 0.3182124245
C  C56  1  0.50000000  0.89410000  0.50000000  1.0 0.023999199
C  C57  1  0.50000000  0.50000000  0.22330000  1.0 0.3182124245
C  C58  1  0.50000000  0.50000000  0.10590000  1.0 0.023999199
C  C59  1  0.50000000  0.50000000  0.77670000  1.0 0.3182124245
C  C60  1  0.50000000  0.50000000  0.89410000  1.0 0.023999199
O  O1  1  0.50000000  0.50000000  0.50000000  1.0 -0.6356787336
O  O2  1  0.26750000  0.44150000  0.44150000  1.0 -0.1299247651
O  O3  1  0.73250000  0.55850000  0.44150000  1.0 -0.1299247651
O  O4  1  0.73250000  0.44150000  0.55850000  1.0 -0.1299247651
O  O5  1  0.26750000  0.55850000  0.55850000  1.0 -0.1299247651
O  O6  1  0.44150000  0.26750000  0.44150000  1.0 -0.1299247651
O  O7  1  0.44150000  0.73250000  0.55850000  1.0 -0.1299247651
O  O8  1  0.55850000  0.73250000  0.44150000  1.0 -0.1299247651
O  O9  1  0.55850000  0.26750000  0.55850000  1.0 -0.1299247651
O  O10  1  0.44150000  0.44150000  0.26750000  1.0 -0.1299247651
O  O11  1  0.55850000  0.44150000  0.73250000  1.0 -0.1299247651
O  O12  1  0.44150000  0.55850000  0.73250000  1.0 -0.1299247651
O  O13  1  0.55850000  0.55850000  0.26750000  1.0 -0.1299247651
O  O14  1  0.44150000  0.26750000  0.55850000  1.0 -0.1299247651
O  O15  1  0.55850000  0.73250000  0.55850000  1.0 -0.1299247651
O  O16  1  0.44150000  0.73250000  0.44150000  1.0 -0.1299247651
O  O17  1  0.55850000  0.26750000  0.44150000  1.0 -0.1299247651
O  O18  1  0.26750000  0.44150000  0.55850000  1.0 -0.1299247651
O  O19  1  0.73250000  0.44150000  0.44150000  1.0 -0.1299247651
O  O20  1  0.73250000  0.55850000  0.55850000  1.0 -0.1299247651
O  O21  1  0.26750000  0.55850000  0.44150000  1.0 -0.1299247651
O  O22  1  0.44150000  0.44150000  0.73250000  1.0 -0.1299247651
O  O23  1  0.44150000  0.55850000  0.26750000  1.0 -0.1299247651
O  O24  1  0.55850000  0.44150000  0.26750000  1.0 -0.1299247651
O  O25  1  0.55850000  0.55850000  0.73250000  1.0 -0.1299247651
