# DDEC6 charges by PACMAN v1.1 (https://github.com/mtap-research/PACMAN-charge/)
data_c5dt03710g2_14_ASR_pacman
_symmetry_space_group_name_H-M   'P 1'
_cell_length_a   13.50150000
_cell_length_b   17.05330000
_cell_length_c   9.60930000
_cell_angle_alpha   90.00000000
_cell_angle_beta   90.00000000
_cell_angle_gamma   90.00000000
_symmetry_Int_Tables_number   1
_chemical_formula_structural   ZnH9C11NO4
_chemical_formula_sum   'Zn4 H36 C44 N4 O16'
_cell_volume   2212.49452723
_cell_formula_units_Z   4
loop_
 _symmetry_equiv_pos_site_id
 _symmetry_equiv_pos_as_xyz
  1  'x, y, z'
loop_
 _atom_site_type_symbol
 _atom_site_label
 _atom_site_symmetry_multiplicity
 _atom_site_fract_x
 _atom_site_fract_y
 _atom_site_fract_z
 _atom_site_occupancy
 _atom_site_charge
Zn  Zn1  1  0.50000000  0.50000000  0.34791000  1.0 0.7713295085
Zn  Zn2  1  0.50000000  0.50000000  0.65209000  1.0 0.7713295085
Zn  Zn3  1  0.00000000  0.00000000  0.34791000  1.0 0.7713295085
Zn  Zn4  1  0.00000000  0.00000000  0.65209000  1.0 0.7713295085
H  H1  1  0.70160000  0.69400000  0.71340000  1.0 0.1261078355
H  H2  1  0.29840000  0.30600000  0.71340000  1.0 0.1261078355
H  H3  1  0.29840000  0.69400000  0.28660000  1.0 0.1261078355
H  H4  1  0.70160000  0.30600000  0.28660000  1.0 0.1261078355
H  H5  1  0.20160000  0.19400000  0.71340000  1.0 0.1261078355
H  H6  1  0.79840000  0.80600000  0.71340000  1.0 0.1261078355
H  H7  1  0.79840000  0.19400000  0.28660000  1.0 0.1261078355
H  H8  1  0.20160000  0.80600000  0.28660000  1.0 0.1261078355
H  H9  1  0.29840000  0.30600000  0.28660000  1.0 0.1261078355
H  H10  1  0.70160000  0.69400000  0.28660000  1.0 0.1261078355
H  H11  1  0.70160000  0.30600000  0.71340000  1.0 0.1261078355
H  H12  1  0.29840000  0.69400000  0.71340000  1.0 0.1261078355
H  H13  1  0.79840000  0.80600000  0.28660000  1.0 0.1261078355
H  H14  1  0.20160000  0.19400000  0.28660000  1.0 0.1261078355
H  H15  1  0.20160000  0.80600000  0.71340000  1.0 0.1261078355
H  H16  1  0.79840000  0.19400000  0.71340000  1.0 0.1261078355
H  H17  1  0.44060000  0.39130000  0.11450000  0.25 0.0896023323
H  H18  1  0.55940000  0.60870000  0.11450000  0.25 0.0896023323
H  H19  1  0.55940000  0.39130000  0.88550000  0.25 0.0896023323
H  H20  1  0.44060000  0.60870000  0.88550000  0.25 0.0896023323
H  H21  1  0.94060000  0.89130000  0.11450000  0.25 0.0896023323
H  H22  1  0.05940000  0.10870000  0.11450000  0.25 0.0896023323
H  H23  1  0.05940000  0.89130000  0.88550000  0.25 0.0896023323
H  H24  1  0.94060000  0.10870000  0.88550000  0.25 0.0896023323
H  H25  1  0.55940000  0.60870000  0.88550000  0.25 0.0896023323
H  H26  1  0.44060000  0.39130000  0.88550000  0.25 0.0896023323
H  H27  1  0.44060000  0.60870000  0.11450000  0.25 0.0896023323
H  H28  1  0.55940000  0.39130000  0.11450000  0.25 0.0896023323
H  H29  1  0.05940000  0.10870000  0.88550000  0.25 0.0896023323
H  H30  1  0.94060000  0.89130000  0.88550000  0.25 0.0896023323
H  H31  1  0.94060000  0.10870000  0.11450000  0.25 0.0896023323
H  H32  1  0.05940000  0.89130000  0.11450000  0.25 0.0896023323
H  H33  1  0.35120000  0.48530000  0.11470000  0.5 0.0896023323
H  H34  1  0.64880000  0.51470000  0.11470000  0.5 0.0896023323
H  H35  1  0.64880000  0.48530000  0.88530000  0.5 0.0896023323
H  H36  1  0.35120000  0.51470000  0.88530000  0.5 0.0896023323
H  H37  1  0.85120000  0.98530000  0.11470000  0.5 0.0896023323
H  H38  1  0.14880000  0.01470000  0.11470000  0.5 0.0896023323
H  H39  1  0.14880000  0.98530000  0.88530000  0.5 0.0896023323
H  H40  1  0.85120000  0.01470000  0.88530000  0.5 0.0896023323
H  H41  1  0.64880000  0.51470000  0.88530000  0.5 0.0896023323
H  H42  1  0.35120000  0.48530000  0.88530000  0.5 0.0896023323
H  H43  1  0.35120000  0.51470000  0.11470000  0.5 0.0896023323
H  H44  1  0.64880000  0.48530000  0.11470000  0.5 0.0896023323
H  H45  1  0.14880000  0.01470000  0.88530000  0.5 0.0896023323
H  H46  1  0.85120000  0.98530000  0.88530000  0.5 0.0896023323
H  H47  1  0.85120000  0.01470000  0.11470000  0.5 0.0896023323
H  H48  1  0.14880000  0.98530000  0.11470000  0.5 0.0896023323
H  H49  1  0.41130000  0.40430000  0.11470000  0.5 0.0896023323
H  H50  1  0.58870000  0.59570000  0.11470000  0.5 0.0896023323
H  H51  1  0.58870000  0.40430000  0.88530000  0.5 0.0896023323
H  H52  1  0.41130000  0.59570000  0.88530000  0.5 0.0896023323
H  H53  1  0.91130000  0.90430000  0.11470000  0.5 0.0896023323
H  H54  1  0.08870000  0.09570000  0.11470000  0.5 0.0896023323
H  H55  1  0.08870000  0.90430000  0.88530000  0.5 0.0896023323
H  H56  1  0.91130000  0.09570000  0.88530000  0.5 0.0896023323
H  H57  1  0.58870000  0.59570000  0.88530000  0.5 0.0896023323
H  H58  1  0.41130000  0.40430000  0.88530000  0.5 0.0896023323
H  H59  1  0.41130000  0.59570000  0.11470000  0.5 0.0896023323
H  H60  1  0.58870000  0.40430000  0.11470000  0.5 0.0896023323
H  H61  1  0.08870000  0.09570000  0.88530000  0.5 0.0896023323
H  H62  1  0.91130000  0.90430000  0.88530000  0.5 0.0896023323
H  H63  1  0.91130000  0.09570000  0.11470000  0.5 0.0896023323
H  H64  1  0.08870000  0.90430000  0.11470000  0.5 0.0896023323
C  C1  1  0.62730000  0.61072000  0.50000000  1.0 0.555674122
C  C2  1  0.37270000  0.38928000  0.50000000  1.0 0.555674122
C  C3  1  0.37270000  0.61072000  0.50000000  1.0 0.555674122
C  C4  1  0.62730000  0.38928000  0.50000000  1.0 0.555674122
C  C5  1  0.12730000  0.11072000  0.50000000  1.0 0.555674122
C  C6  1  0.87270000  0.88928000  0.50000000  1.0 0.555674122
C  C7  1  0.87270000  0.11072000  0.50000000  1.0 0.555674122
C  C8  1  0.12730000  0.88928000  0.50000000  1.0 0.555674122
C  C9  1  0.69120000  0.68294000  0.50000000  1.0 -0.008051118
C  C10  1  0.30880000  0.31706000  0.50000000  1.0 -0.008051118
C  C11  1  0.30880000  0.68294000  0.50000000  1.0 -0.008051118
C  C12  1  0.69120000  0.31706000  0.50000000  1.0 -0.008051118
C  C13  1  0.19120000  0.18294000  0.50000000  1.0 -0.008051118
C  C14  1  0.80880000  0.81706000  0.50000000  1.0 -0.008051118
C  C15  1  0.80880000  0.18294000  0.50000000  1.0 -0.008051118
C  C16  1  0.19120000  0.81706000  0.50000000  1.0 -0.008051118
C  C17  1  0.72130000  0.71705000  0.62770000  1.0 -0.1227862852
C  C18  1  0.27870000  0.28295000  0.62770000  1.0 -0.1227862852
C  C19  1  0.27870000  0.71705000  0.37230000  1.0 -0.1227862852
C  C20  1  0.72130000  0.28295000  0.37230000  1.0 -0.1227862852
C  C21  1  0.22130000  0.21705000  0.62770000  1.0 -0.1227862852
C  C22  1  0.77870000  0.78295000  0.62770000  1.0 -0.1227862852
C  C23  1  0.77870000  0.21705000  0.37230000  1.0 -0.1227862852
C  C24  1  0.22130000  0.78295000  0.37230000  1.0 -0.1227862852
C  C25  1  0.27870000  0.28295000  0.37230000  1.0 -0.1227862852
C  C26  1  0.72130000  0.71705000  0.37230000  1.0 -0.1227862852
C  C27  1  0.72130000  0.28295000  0.62770000  1.0 -0.1227862852
C  C28  1  0.27870000  0.71705000  0.62770000  1.0 -0.1227862852
C  C29  1  0.77870000  0.78295000  0.37230000  1.0 -0.1227862852
C  C30  1  0.22130000  0.21705000  0.37230000  1.0 -0.1227862852
C  C31  1  0.22130000  0.78295000  0.62770000  1.0 -0.1227862852
C  C32  1  0.77870000  0.21705000  0.62770000  1.0 -0.1227862852
C  C33  1  0.50000000  0.41930000  0.08010000  0.5 -0.1227862852
C  C34  1  0.50000000  0.58070000  0.08010000  0.5 -0.1227862852
C  C35  1  0.50000000  0.41930000  0.91990000  0.5 -0.1227862852
C  C36  1  0.50000000  0.58070000  0.91990000  0.5 -0.1227862852
C  C37  1  0.00000000  0.91930000  0.08010000  0.5 -0.1227862852
C  C38  1  0.00000000  0.08070000  0.08010000  0.5 -0.1227862852
C  C39  1  0.00000000  0.91930000  0.91990000  0.5 -0.1227862852
C  C40  1  0.00000000  0.08070000  0.91990000  0.5 -0.1227862852
C  C41  1  0.41170000  0.45900000  0.08020000  0.5 -0.1227862852
C  C42  1  0.58830000  0.54100000  0.08020000  0.5 -0.1227862852
C  C43  1  0.58830000  0.45900000  0.91980000  0.5 -0.1227862852
C  C44  1  0.41170000  0.54100000  0.91980000  0.5 -0.1227862852
C  C45  1  0.91170000  0.95900000  0.08020000  0.5 -0.1227862852
C  C46  1  0.08830000  0.04100000  0.08020000  0.5 -0.1227862852
C  C47  1  0.08830000  0.95900000  0.91980000  0.5 -0.1227862852
C  C48  1  0.91170000  0.04100000  0.91980000  0.5 -0.1227862852
C  C49  1  0.58830000  0.54100000  0.91980000  0.5 -0.1227862852
C  C50  1  0.41170000  0.45900000  0.91980000  0.5 -0.1227862852
C  C51  1  0.41170000  0.54100000  0.08020000  0.5 -0.1227862852
C  C52  1  0.58830000  0.45900000  0.08020000  0.5 -0.1227862852
C  C53  1  0.08830000  0.04100000  0.91980000  0.5 -0.1227862852
C  C54  1  0.91170000  0.95900000  0.91980000  0.5 -0.1227862852
C  C55  1  0.91170000  0.04100000  0.08020000  0.5 -0.1227862852
C  C56  1  0.08830000  0.95900000  0.08020000  0.5 -0.1227862852
N  N1  1  0.50000000  0.50000000  0.13380000  1.0 -0.0847572802
N  N2  1  0.50000000  0.50000000  0.86620000  1.0 -0.0847572802
N  N3  1  0.00000000  0.00000000  0.13380000  1.0 -0.0847572802
N  N4  1  0.00000000  0.00000000  0.86620000  1.0 -0.0847572802
O  O1  1  0.60262000  0.58380000  0.38470000  1.0 -0.5334036785
O  O2  1  0.39738000  0.41620000  0.38470000  1.0 -0.5334036785
O  O3  1  0.39738000  0.58380000  0.61530000  1.0 -0.5334036785
O  O4  1  0.60262000  0.41620000  0.61530000  1.0 -0.5334036785
O  O5  1  0.10262000  0.08380000  0.38470000  1.0 -0.5334036785
O  O6  1  0.89738000  0.91620000  0.38470000  1.0 -0.5334036785
O  O7  1  0.89738000  0.08380000  0.61530000  1.0 -0.5334036785
O  O8  1  0.10262000  0.91620000  0.61530000  1.0 -0.5334036785
O  O9  1  0.39738000  0.41620000  0.61530000  1.0 -0.5334036785
O  O10  1  0.60262000  0.58380000  0.61530000  1.0 -0.5334036785
O  O11  1  0.60262000  0.41620000  0.38470000  1.0 -0.5334036785
O  O12  1  0.39738000  0.58380000  0.38470000  1.0 -0.5334036785
O  O13  1  0.89738000  0.91620000  0.61530000  1.0 -0.5334036785
O  O14  1  0.10262000  0.08380000  0.61530000  1.0 -0.5334036785
O  O15  1  0.10262000  0.91620000  0.38470000  1.0 -0.5334036785
O  O16  1  0.89738000  0.08380000  0.38470000  1.0 -0.5334036785
