# DDEC6 charges by PACMAN v1.1 (https://github.com/mtap-research/PACMAN-charge/)
data_c5dt03710g2_4_ASR_pacman
_symmetry_space_group_name_H-M   'P 1'
_cell_length_a   10.95540000
_cell_length_b   10.95540000
_cell_length_c   9.59670000
_cell_angle_alpha   90.00000000
_cell_angle_beta   90.00000000
_cell_angle_gamma   90.00000000
_symmetry_Int_Tables_number   1
_chemical_formula_structural   ZnH16C11NO4
_chemical_formula_sum   'Zn2 H32 C22 N2 O8'
_cell_volume   1151.80350733
_cell_formula_units_Z   2
loop_
 _symmetry_equiv_pos_site_id
 _symmetry_equiv_pos_as_xyz
  1  'x, y, z'
loop_
 _atom_site_type_symbol
 _atom_site_label
 _atom_site_symmetry_multiplicity
 _atom_site_fract_x
 _atom_site_fract_y
 _atom_site_fract_z
 _atom_site_occupancy
 _atom_site_charge
Zn  Zn1  1  0.00000000  0.00000000  0.35006000  1.0 0.8315658266
Zn  Zn2  1  0.00000000  0.00000000  0.64994000  1.0 0.8315658266
H  H1  1  0.00000000  0.39380000  0.70880000  1.0 0.1400666828
H  H2  1  0.00000000  0.60620000  0.70880000  1.0 0.1400666828
H  H3  1  0.39380000  0.00000000  0.70880000  1.0 0.1400666828
H  H4  1  0.60620000  0.00000000  0.70880000  1.0 0.1400666828
H  H5  1  0.00000000  0.60620000  0.29120000  1.0 0.1400666828
H  H6  1  0.00000000  0.39380000  0.29120000  1.0 0.1400666828
H  H7  1  0.39380000  0.00000000  0.29120000  1.0 0.1400666828
H  H8  1  0.60620000  0.00000000  0.29120000  1.0 0.1400666828
H  H9  1  0.12580000  0.13210000  0.11430000  0.75 0.1104308436
H  H10  1  0.87420000  0.86790000  0.11430000  0.75 0.1104308436
H  H11  1  0.13210000  0.87420000  0.11430000  0.75 0.1104308436
H  H12  1  0.86790000  0.12580000  0.11430000  0.75 0.1104308436
H  H13  1  0.12580000  0.86790000  0.88570000  0.75 0.1104308436
H  H14  1  0.87420000  0.13210000  0.88570000  0.75 0.1104308436
H  H15  1  0.13210000  0.12580000  0.88570000  0.75 0.1104308436
H  H16  1  0.86790000  0.87420000  0.88570000  0.75 0.1104308436
H  H17  1  0.87420000  0.86790000  0.88570000  0.75 0.1104308436
H  H18  1  0.12580000  0.13210000  0.88570000  0.75 0.1104308436
H  H19  1  0.86790000  0.12580000  0.88570000  0.75 0.1104308436
H  H20  1  0.13210000  0.87420000  0.88570000  0.75 0.1104308436
H  H21  1  0.87420000  0.13210000  0.11430000  0.75 0.1104308436
H  H22  1  0.12580000  0.86790000  0.11430000  0.75 0.1104308436
H  H23  1  0.86790000  0.87420000  0.11430000  0.75 0.1104308436
H  H24  1  0.13210000  0.12580000  0.11430000  0.75 0.1104308436
H  H25  1  0.18230000  0.99720000  0.11430000  0.75 0.1104308436
H  H26  1  0.81770000  0.00280000  0.11430000  0.75 0.1104308436
H  H27  1  0.99720000  0.81770000  0.11430000  0.75 0.1104308436
H  H28  1  0.00280000  0.18230000  0.11430000  0.75 0.1104308436
H  H29  1  0.18230000  0.00280000  0.88570000  0.75 0.1104308436
H  H30  1  0.81770000  0.99720000  0.88570000  0.75 0.1104308436
H  H31  1  0.99720000  0.18230000  0.88570000  0.75 0.1104308436
H  H32  1  0.00280000  0.81770000  0.88570000  0.75 0.1104308436
H  H33  1  0.81770000  0.00280000  0.88570000  0.75 0.1104308436
H  H34  1  0.18230000  0.99720000  0.88570000  0.75 0.1104308436
H  H35  1  0.00280000  0.18230000  0.88570000  0.75 0.1104308436
H  H36  1  0.99720000  0.81770000  0.88570000  0.75 0.1104308436
H  H37  1  0.81770000  0.99720000  0.11430000  0.75 0.1104308436
H  H38  1  0.18230000  0.00280000  0.11430000  0.75 0.1104308436
H  H39  1  0.00280000  0.81770000  0.11430000  0.75 0.1104308436
H  H40  1  0.99720000  0.18230000  0.11430000  0.75 0.1104308436
C  C1  1  0.00000000  0.23536000  0.50000000  1.0 0.5711232121
C  C2  1  0.00000000  0.76464000  0.50000000  1.0 0.5711232121
C  C3  1  0.23536000  0.00000000  0.50000000  1.0 0.5711232121
C  C4  1  0.76464000  0.00000000  0.50000000  1.0 0.5711232121
C  C5  1  0.00000000  0.37258000  0.50000000  1.0 0.0642793025
C  C6  1  0.00000000  0.62742000  0.50000000  1.0 0.0642793025
C  C7  1  0.37258000  0.00000000  0.50000000  1.0 0.0642793025
C  C8  1  0.62742000  0.00000000  0.50000000  1.0 0.0642793025
C  C9  1  0.00000000  0.43663000  0.62269000  1.0 -0.1076531043
C  C10  1  0.00000000  0.56337000  0.62269000  1.0 -0.1076531043
C  C11  1  0.43663000  0.00000000  0.62269000  1.0 -0.1076531043
C  C12  1  0.56337000  0.00000000  0.62269000  1.0 -0.1076531043
C  C13  1  0.00000000  0.56337000  0.37731000  1.0 -0.1076531043
C  C14  1  0.00000000  0.43663000  0.37731000  1.0 -0.1076531043
C  C15  1  0.43663000  0.00000000  0.37731000  1.0 -0.1076531043
C  C16  1  0.56337000  0.00000000  0.37731000  1.0 -0.1076531043
C  C17  1  0.11370000  0.04770000  0.08000000  0.375 -0.0671196259
C  C18  1  0.88630000  0.95230000  0.08000000  0.375 -0.0671196259
C  C19  1  0.04770000  0.88630000  0.08000000  0.375 -0.0671196259
C  C20  1  0.95230000  0.11370000  0.08000000  0.375 -0.0671196259
C  C21  1  0.11370000  0.95230000  0.92000000  0.375 -0.0671196259
C  C22  1  0.88630000  0.04770000  0.92000000  0.375 -0.0671196259
C  C23  1  0.04770000  0.11370000  0.92000000  0.375 -0.0671196259
C  C24  1  0.95230000  0.88630000  0.92000000  0.375 -0.0671196259
C  C25  1  0.88630000  0.95230000  0.92000000  0.375 -0.0671196259
C  C26  1  0.11370000  0.04770000  0.92000000  0.375 -0.0671196259
C  C27  1  0.95230000  0.11370000  0.92000000  0.375 -0.0671196259
C  C28  1  0.04770000  0.88630000  0.92000000  0.375 -0.0671196259
C  C29  1  0.88630000  0.04770000  0.08000000  0.375 -0.0671196259
C  C30  1  0.11370000  0.95230000  0.08000000  0.375 -0.0671196259
C  C31  1  0.95230000  0.88630000  0.08000000  0.375 -0.0671196259
C  C32  1  0.04770000  0.11370000  0.08000000  0.375 -0.0671196259
N  N1  1  0.00000000  0.00000000  0.13420000  1.0 -0.0862028902
N  N2  1  0.00000000  0.00000000  0.86580000  1.0 -0.0862028902
O  O1  1  0.01630000  0.18277000  0.38460000  0.5 -0.4219698464
O  O2  1  0.98370000  0.81723000  0.38460000  0.5 -0.4219698464
O  O3  1  0.18277000  0.98370000  0.38460000  0.5 -0.4219698464
O  O4  1  0.81723000  0.01630000  0.38460000  0.5 -0.4219698464
O  O5  1  0.01630000  0.81723000  0.61540000  0.5 -0.4219698464
O  O6  1  0.98370000  0.18277000  0.61540000  0.5 -0.4219698464
O  O7  1  0.18277000  0.01630000  0.61540000  0.5 -0.4219698464
O  O8  1  0.81723000  0.98370000  0.61540000  0.5 -0.4219698464
O  O9  1  0.98370000  0.81723000  0.61540000  0.5 -0.4219698464
O  O10  1  0.01630000  0.18277000  0.61540000  0.5 -0.4219698464
O  O11  1  0.81723000  0.01630000  0.61540000  0.5 -0.4219698464
O  O12  1  0.18277000  0.98370000  0.61540000  0.5 -0.4219698464
O  O13  1  0.98370000  0.18277000  0.38460000  0.5 -0.4219698464
O  O14  1  0.01630000  0.81723000  0.38460000  0.5 -0.4219698464
O  O15  1  0.81723000  0.98370000  0.38460000  0.5 -0.4219698464
O  O16  1  0.18277000  0.01630000  0.38460000  0.5 -0.4219698464
