# DDEC6 charges by PACMAN v1.1 (https://github.com/mtap-research/PACMAN-charge/)
data_c7cc06074b5_4_FSR_pacman
_symmetry_space_group_name_H-M   'P 1'
_cell_length_a   7.51960000
_cell_length_b   23.29290000
_cell_length_c   29.56300000
_cell_angle_alpha   90.00000000
_cell_angle_beta   90.00000000
_cell_angle_gamma   90.00000000
_symmetry_Int_Tables_number   1
_chemical_formula_structural   ZnH28C41S2N2(O2F3)2
_chemical_formula_sum   'Zn4 H112 C164 S8 N8 O16 F24'
_cell_volume   5178.05673710
_cell_formula_units_Z   4
loop_
 _symmetry_equiv_pos_site_id
 _symmetry_equiv_pos_as_xyz
  1  'x, y, z'
loop_
 _atom_site_type_symbol
 _atom_site_label
 _atom_site_symmetry_multiplicity
 _atom_site_fract_x
 _atom_site_fract_y
 _atom_site_fract_z
 _atom_site_occupancy
 _atom_site_charge
Zn  Zn1  1  0.61410000  0.02623000  0.22607000  1.0 0.7577608801
Zn  Zn2  1  0.88590000  0.97377000  0.72607000  1.0 0.7577608801
Zn  Zn3  1  0.11410000  0.47377000  0.77393000  1.0 0.7577608801
Zn  Zn4  1  0.38590000  0.52623000  0.27393000  1.0 0.7577608801
H  H1  1  0.62369000  0.36061000  0.25440000  1.0 0.1196771144
H  H2  1  0.87631000  0.63939000  0.75440000  1.0 0.1196771144
H  H3  1  0.12369000  0.13939000  0.74560000  1.0 0.1196771144
H  H4  1  0.37631000  0.86061000  0.24560000  1.0 0.1196771144
H  H5  1  0.62257000  0.12457000  0.07782000  1.0 0.1397866912
H  H6  1  0.87743000  0.87543000  0.57782000  1.0 0.1397866912
H  H7  1  0.12257000  0.37543000  0.92218000  1.0 0.1397866912
H  H8  1  0.37743000  0.62457000  0.42218000  1.0 0.1397866912
H  H9  1  0.96679000  0.20616000  0.25948000  1.0 0.1196771144
H  H10  1  0.53321000  0.79384000  0.75948000  1.0 0.1196771144
H  H11  1  0.46679000  0.29384000  0.74052000  1.0 0.1196771144
H  H12  1  0.03321000  0.70616000  0.24052000  1.0 0.1196771144
H  H13  1  0.74530000  0.08054000  0.76978000  1.0 0.1196771144
H  H14  1  0.75470000  0.91946000  0.26978000  1.0 0.1196771144
H  H15  1  0.24530000  0.41946000  0.23022000  1.0 0.1196771144
H  H16  1  0.25470000  0.58054000  0.73022000  1.0 0.1196771144
H  H17  1  0.74414000  0.15673000  0.01195000  1.0 0.1656227946
H  H18  1  0.75586000  0.84327000  0.51195000  1.0 0.1656227946
H  H19  1  0.24414000  0.34327000  0.98805000  1.0 0.1656227946
H  H20  1  0.25586000  0.65673000  0.48805000  1.0 0.1656227946
H  H21  1  0.14187000  0.35456000  0.34209000  1.0 0.1196771144
H  H22  1  0.35813000  0.64544000  0.84209000  1.0 0.1196771144
H  H23  1  0.64187000  0.14544000  0.65791000  1.0 0.1196771144
H  H24  1  0.85813000  0.85456000  0.15791000  1.0 0.1196771144
H  H25  1  0.93798000  0.42995000  0.35108000  1.0 0.1196771144
H  H26  1  0.56202000  0.57005000  0.85108000  1.0 0.1196771144
H  H27  1  0.43798000  0.07005000  0.64892000  1.0 0.1196771144
H  H28  1  0.06202000  0.92995000  0.14892000  1.0 0.1196771144
H  H29  1  0.82363000  0.28549000  0.24487000  1.0 0.1266606679
H  H30  1  0.67637000  0.71451000  0.74487000  1.0 0.1266606679
H  H31  1  0.32363000  0.21451000  0.75513000  1.0 0.1266606679
H  H32  1  0.17637000  0.78549000  0.25513000  1.0 0.1266606679
H  H33  1  0.56257000  0.92161000  0.76851000  1.0 0.1196771144
H  H34  1  0.93743000  0.07839000  0.26851000  1.0 0.1196771144
H  H35  1  0.06257000  0.57839000  0.23149000  1.0 0.1196771144
H  H36  1  0.43743000  0.42161000  0.73149000  1.0 0.1196771144
H  H37  1  0.35435000  0.31057000  0.30567000  1.0 0.112827349
H  H38  1  0.14565000  0.68943000  0.80567000  1.0 0.112827349
H  H39  1  0.85435000  0.18943000  0.69433000  1.0 0.112827349
H  H40  1  0.64565000  0.81057000  0.19433000  1.0 0.112827349
H  H41  1  0.17279000  0.13390000  0.24771000  1.0 0.1196771144
H  H42  1  0.32721000  0.86610000  0.74771000  1.0 0.1196771144
H  H43  1  0.67279000  0.36610000  0.75229000  1.0 0.1196771144
H  H44  1  0.82721000  0.63390000  0.25229000  1.0 0.1196771144
H  H45  1  0.50096000  0.11146000  0.81042000  1.0 0.1397866912
H  H46  1  0.99904000  0.88854000  0.31042000  1.0 0.1397866912
H  H47  1  0.00096000  0.38854000  0.18958000  1.0 0.1397866912
H  H48  1  0.49904000  0.61146000  0.68958000  1.0 0.1397866912
H  H49  1  0.21355000  0.14170000  0.83071000  1.0 0.1397866912
H  H50  1  0.28645000  0.85830000  0.33071000  1.0 0.1397866912
H  H51  1  0.71355000  0.35830000  0.16929000  1.0 0.1397866912
H  H52  1  0.78645000  0.64170000  0.66929000  1.0 0.1397866912
H  H53  1  0.50538000  0.09150000  0.14513000  1.0 0.1196771144
H  H54  1  0.99462000  0.90850000  0.64513000  1.0 0.1196771144
H  H55  1  0.00538000  0.40850000  0.85487000  1.0 0.1196771144
H  H56  1  0.49462000  0.59150000  0.35487000  1.0 0.1196771144
H  H57  1  0.97767000  0.03002000  0.18092000  1.0 0.1034707342
H  H58  1  0.52233000  0.96998000  0.68092000  1.0 0.1034707342
H  H59  1  0.47767000  0.46998000  0.81908000  1.0 0.1034707342
H  H60  1  0.02233000  0.53002000  0.31908000  1.0 0.1034707342
H  H61  1  0.56611000  0.24028000  0.28867000  1.0 0.112827349
H  H62  1  0.93389000  0.75972000  0.78867000  1.0 0.112827349
H  H63  1  0.06611000  0.25972000  0.71133000  1.0 0.112827349
H  H64  1  0.43389000  0.74028000  0.21133000  1.0 0.112827349
H  H65  1  0.09954000  0.06214000  0.11293000  1.0 0.1397866912
H  H66  1  0.40046000  0.93786000  0.61293000  1.0 0.1397866912
H  H67  1  0.59954000  0.43786000  0.88707000  1.0 0.1397866912
H  H68  1  0.90046000  0.56214000  0.38707000  1.0 0.1397866912
H  H69  1  0.29933000  0.95034000  0.80187000  1.0 0.1397866912
H  H70  1  0.20067000  0.04966000  0.30187000  1.0 0.1397866912
H  H71  1  0.79933000  0.54966000  0.19813000  1.0 0.1397866912
H  H72  1  0.70067000  0.45034000  0.69813000  1.0 0.1397866912
H  H73  1  0.65836000  0.98918000  0.87085000  1.0 0.112827349
H  H74  1  0.84164000  0.01082000  0.37085000  1.0 0.112827349
H  H75  1  0.15836000  0.51082000  0.12915000  1.0 0.112827349
H  H76  1  0.34164000  0.48918000  0.62915000  1.0 0.112827349
H  H77  1  0.59985000  0.98280000  0.92265000  1.0 0.1196771144
H  H78  1  0.90015000  0.01720000  0.42265000  1.0 0.1266606679
H  H79  1  0.09985000  0.51720000  0.07735000  1.0 0.1266606679
H  H80  1  0.40015000  0.48280000  0.57735000  1.0 0.1196771144
H  H81  1  0.78598000  0.95705000  0.90600000  1.0 0.112827349
H  H82  1  0.71402000  0.04295000  0.40600000  1.0 0.112827349
H  H83  1  0.28598000  0.54295000  0.09400000  1.0 0.112827349
H  H84  1  0.21402000  0.45705000  0.59400000  1.0 0.112827349
H  H85  1  0.83000000  0.04206000  0.94450000  1.0 0.112827349
H  H86  1  0.67000000  0.95794000  0.44450000  1.0 0.112827349
H  H87  1  0.33000000  0.45794000  0.05550000  1.0 0.112827349
H  H88  1  0.17000000  0.54206000  0.55550000  1.0 0.112827349
H  H89  1  0.69883000  0.07442000  0.91052000  1.0 0.1034707342
H  H90  1  0.80117000  0.92558000  0.41052000  1.0 0.1034707342
H  H91  1  0.19883000  0.42558000  0.08948000  1.0 0.1034707342
H  H92  1  0.30117000  0.57442000  0.58948000  1.0 0.1034707342
H  H93  1  0.50819000  0.11448000  0.91965000  0.49 0.0802108745
H  H94  1  0.99181000  0.88552000  0.41965000  0.49 0.0692217203
H  H95  1  0.00819000  0.38552000  0.08035000  0.49 0.0802108745
H  H96  1  0.49181000  0.61448000  0.58035000  0.49 0.0692217203
H  H97  1  0.44037000  0.09140000  0.96763000  0.49 0.0896049074
H  H98  1  0.05963000  0.90860000  0.46763000  0.49 0.0896049074
H  H99  1  0.94037000  0.40860000  0.03237000  0.49 0.0896049074
H  H100  1  0.55963000  0.59140000  0.53237000  0.49 0.0896049074
H  H101  1  0.32419000  0.08024000  0.92314000  0.49 0.0600337997
H  H102  1  0.17581000  0.91976000  0.42314000  0.49 0.0600337997
H  H103  1  0.82419000  0.41976000  0.07686000  0.49 0.0600337997
H  H104  1  0.67581000  0.58024000  0.57686000  0.49 0.0600337997
H  H105  1  0.26030000  0.18040000  0.91787000  0.49 0.0896049074
H  H106  1  0.23970000  0.81960000  0.41787000  0.49 0.0896049074
H  H107  1  0.76030000  0.31960000  0.08213000  0.49 0.0896049074
H  H108  1  0.73970000  0.68040000  0.58213000  0.49 0.0896049074
H  H109  1  0.37816000  0.19172000  0.96301000  0.49 0.112827349
H  H110  1  0.12184000  0.80828000  0.46301000  0.49 0.112827349
H  H111  1  0.87816000  0.30828000  0.03699000  0.49 0.112827349
H  H112  1  0.62184000  0.69172000  0.53699000  0.49 0.112827349
H  H113  1  0.48131000  0.16984000  0.91078000  0.51 0.0896049074
H  H114  1  0.01869000  0.83016000  0.41078000  0.51 0.0896049074
H  H115  1  0.98131000  0.33016000  0.08922000  0.51 0.0896049074
H  H116  1  0.51869000  0.66984000  0.58922000  0.51 0.0896049074
H  H117  1  0.28665000  0.19760000  0.91127000  0.51 0.0802108745
H  H118  1  0.21335000  0.80240000  0.41127000  0.51 0.0802108745
H  H119  1  0.78665000  0.30240000  0.08873000  0.51 0.0802108745
H  H120  1  0.71335000  0.69760000  0.58873000  0.51 0.0802108745
H  H121  1  0.41337000  0.20397000  0.95447000  0.51 0.0896049074
H  H122  1  0.08663000  0.79603000  0.45447000  0.51 0.0896049074
H  H123  1  0.91337000  0.29603000  0.04553000  0.51 0.0896049074
H  H124  1  0.58663000  0.70397000  0.54553000  0.51 0.0896049074
H  H125  1  0.26504000  0.09530000  0.92466000  0.51 0.0600337997
H  H126  1  0.23496000  0.90470000  0.42466000  0.51 0.0600337997
H  H127  1  0.76504000  0.40470000  0.07534000  0.51 0.0600337997
H  H128  1  0.73496000  0.59530000  0.57534000  0.51 0.0600337997
H  H129  1  0.39203000  0.10168000  0.96795000  0.51 0.0896049074
H  H130  1  0.10797000  0.89832000  0.46795000  0.51 0.0896049074
H  H131  1  0.89203000  0.39832000  0.03205000  0.51 0.0896049074
H  H132  1  0.60797000  0.60168000  0.53205000  0.51 0.0896049074
C  C1  1  0.72960000  0.35960000  0.27190000  1.0 -0.0991487205
C  C2  1  0.77040000  0.64040000  0.77190000  1.0 -0.0991487205
C  C3  1  0.22960000  0.14040000  0.72810000  1.0 -0.0991487205
C  C4  1  0.27040000  0.85960000  0.22810000  1.0 -0.0991487205
C  C5  1  0.52500000  0.13330000  0.25850000  1.0 0.5525293327
C  C6  1  0.97500000  0.86670000  0.75850000  1.0 0.5525293327
C  C7  1  0.02500000  0.36670000  0.74150000  1.0 0.5525293327
C  C8  1  0.47500000  0.63330000  0.24150000  1.0 0.5525293327
C  C9  1  0.76380000  0.40370000  0.30370000  1.0 -0.0375061263
C  C10  1  0.73620000  0.59630000  0.80370000  1.0 -0.0375061263
C  C11  1  0.26380000  0.09630000  0.69630000  1.0 -0.0375061263
C  C12  1  0.23620000  0.90370000  0.19630000  1.0 -0.0375061263
C  C13  1  0.37030000  0.03530000  0.80900000  1.0 0.1266606679
C  C14  1  0.12970000  0.96470000  0.30900000  1.0 0.1266606679
C  C15  1  0.87030000  0.46470000  0.19100000  1.0 0.1266606679
C  C16  1  0.62970000  0.53530000  0.69100000  1.0 0.1266606679
C  C17  1  0.38960000  0.17990000  0.26660000  1.0 -0.0193420026
C  C18  1  0.11040000  0.82010000  0.76660000  1.0 -0.0193420026
C  C19  1  0.88960000  0.32010000  0.73340000  1.0 -0.0193420026
C  C20  1  0.61040000  0.67990000  0.23340000  1.0 -0.0193420026
C  C21  1  0.69790000  0.10490000  0.09840000  1.0 -0.1698833205
C  C22  1  0.80210000  0.89510000  0.59840000  1.0 -0.1698833205
C  C23  1  0.19790000  0.39510000  0.90160000  1.0 -0.1698833205
C  C24  1  0.30210000  0.60490000  0.40160000  1.0 -0.1698833205
C  C25  1  0.08860000  0.21310000  0.26600000  1.0 -0.1330442228
C  C26  1  0.41140000  0.78690000  0.76600000  1.0 -0.1330442228
C  C27  1  0.58860000  0.28690000  0.73400000  1.0 -0.1330442228
C  C28  1  0.91140000  0.71310000  0.23400000  1.0 -0.1330442228
C  C29  1  0.65530000  0.05360000  0.77740000  1.0 0.0802108745
C  C30  1  0.84470000  0.94640000  0.27740000  1.0 0.0802108745
C  C31  1  0.15530000  0.44640000  0.22260000  1.0 0.0802108745
C  C32  1  0.34470000  0.55360000  0.72260000  1.0 0.0802108745
C  C33  1  0.86450000  0.14450000  0.01030000  1.0 -0.2178304051
C  C34  1  0.63550000  0.85550000  0.51030000  1.0 -0.2178304051
C  C35  1  0.36450000  0.35550000  0.98970000  1.0 -0.2178304051
C  C36  1  0.13550000  0.64450000  0.48970000  1.0 -0.2178304051
C  C37  1  0.03830000  0.35590000  0.32370000  1.0 -0.1603064131
C  C38  1  0.46170000  0.64410000  0.82370000  1.0 -0.1603064131
C  C39  1  0.53830000  0.14410000  0.67630000  1.0 -0.1603064131
C  C40  1  0.96170000  0.85590000  0.17630000  1.0 -0.1603064131
C  C41  1  0.91530000  0.40100000  0.32920000  1.0 -0.0991487205
C  C42  1  0.58470000  0.59900000  0.82920000  1.0 -0.0991487205
C  C43  1  0.41530000  0.09900000  0.67080000  1.0 -0.0991487205
C  C44  1  0.08470000  0.90100000  0.17080000  1.0 -0.0991487205
C  C45  1  0.84950000  0.31500000  0.26610000  1.0 -0.1536602252
C  C46  1  0.65050000  0.68500000  0.76610000  1.0 -0.1536602252
C  C47  1  0.34950000  0.18500000  0.73390000  1.0 -0.1536602252
C  C48  1  0.15050000  0.81500000  0.23390000  1.0 -0.1536602252
C  C49  1  0.54630000  0.96100000  0.77570000  1.0 0.0802108745
C  C50  1  0.95370000  0.03900000  0.27570000  1.0 0.0802108745
C  C51  1  0.04630000  0.53900000  0.22430000  1.0 0.0802108745
C  C52  1  0.45370000  0.46100000  0.72430000  1.0 0.0802108745
C  C53  1  0.31740000  0.27520000  0.29270000  1.0 -0.1416216068
C  C54  1  0.18260000  0.72480000  0.79270000  1.0 -0.1416216068
C  C55  1  0.81740000  0.22480000  0.70730000  1.0 -0.1416216068
C  C56  1  0.68260000  0.77520000  0.20730000  1.0 -0.1416216068
C  C57  1  0.21110000  0.17030000  0.25850000  1.0 -0.0991487205
C  C58  1  0.28890000  0.82970000  0.75850000  1.0 -0.0991487205
C  C59  1  0.71110000  0.32970000  0.74150000  1.0 -0.0991487205
C  C60  1  0.78890000  0.67030000  0.24150000  1.0 -0.0991487205
C  C61  1  0.94600000  0.11630000  0.04390000  1.0 -0.0193420026
C  C62  1  0.55400000  0.88370000  0.54390000  1.0 -0.0193420026
C  C63  1  0.44600000  0.38370000  0.95610000  1.0 -0.0193420026
C  C64  1  0.05400000  0.61630000  0.45610000  1.0 -0.0193420026
C  C65  1  0.20890000  0.05390000  0.83370000  1.0 -0.0375061263
C  C66  1  0.29110000  0.94610000  0.33370000  1.0 -0.0375061263
C  C67  1  0.70890000  0.44610000  0.16630000  1.0 -0.0375061263
C  C68  1  0.79110000  0.55390000  0.66630000  1.0 -0.0375061263
C  C69  1  0.87410000  0.09690000  0.08730000  1.0 0.1196771144
C  C70  1  0.62590000  0.90310000  0.58730000  1.0 0.1196771144
C  C71  1  0.37410000  0.40310000  0.91270000  1.0 0.1196771144
C  C72  1  0.12590000  0.59690000  0.41270000  1.0 0.1196771144
C  C73  1  0.83730000  0.24240000  0.93220000  1.0 0.2707588874
C  C74  1  0.66270000  0.75760000  0.43220000  1.0 0.2707588874
C  C75  1  0.33730000  0.25760000  0.06780000  1.0 0.2707588874
C  C76  1  0.16270000  0.74240000  0.56780000  1.0 0.2707588874
C  C77  1  0.97320000  0.15460000  0.97200000  1.0 -0.0193420026
C  C78  1  0.52680000  0.84540000  0.47200000  1.0 -0.0193420026
C  C79  1  0.47320000  0.34540000  0.02800000  1.0 -0.0193420026
C  C80  1  0.02680000  0.65460000  0.52800000  1.0 -0.0193420026
C  C81  1  0.00860000  0.31250000  0.29110000  1.0 0.0802108745
C  C82  1  0.49140000  0.68750000  0.79110000  1.0 0.0802108745
C  C83  1  0.50860000  0.18750000  0.70890000  1.0 0.0802108745
C  C84  1  0.99140000  0.81250000  0.20890000  1.0 0.0802108745
C  C85  1  0.50780000  0.07270000  0.80050000  1.0 -0.1913486388
C  C86  1  0.99220000  0.92730000  0.30050000  1.0 -0.1913486388
C  C87  1  0.00780000  0.42730000  0.19950000  1.0 -0.1913486388
C  C88  1  0.49220000  0.57270000  0.69950000  1.0 -0.1913486388
C  C89  1  0.13960000  0.26650000  0.28310000  1.0 0.0692217203
C  C90  1  0.36040000  0.73350000  0.78310000  1.0 0.0692217203
C  C91  1  0.63960000  0.23350000  0.71690000  1.0 0.0692217203
C  C92  1  0.86040000  0.76650000  0.21690000  1.0 0.0692217203
C  C93  1  0.00500000  0.11140000  0.87050000  1.0 -0.0094599057
C  C94  1  0.49500000  0.88860000  0.37050000  1.0 -0.0094599057
C  C95  1  0.50500000  0.38860000  0.12950000  1.0 -0.0094599057
C  C96  1  0.99500000  0.61140000  0.62950000  1.0 -0.0094599057
C  C97  1  0.15520000  0.10870000  0.84240000  1.0 -0.2377365477
C  C98  1  0.34480000  0.89130000  0.34240000  1.0 -0.2377365477
C  C99  1  0.65520000  0.39130000  0.15760000  1.0 -0.2377365477
C  C100  1  0.84480000  0.60870000  0.65760000  1.0 -0.2377365477
C  C101  1  0.87240000  0.21170000  0.85450000  1.0 0.3534861184
C  C102  1  0.62760000  0.78830000  0.35450000  1.0 0.3534861184
C  C103  1  0.37240000  0.28830000  0.14550000  1.0 0.3534861184
C  C104  1  0.12760000  0.71170000  0.64550000  1.0 0.3534861184
C  C105  1  0.62750000  0.08500000  0.13870000  1.0 0.0802108745
C  C106  1  0.87250000  0.91500000  0.63870000  1.0 0.0802108745
C  C107  1  0.12750000  0.41500000  0.86130000  1.0 0.0802108745
C  C108  1  0.37250000  0.58500000  0.36130000  1.0 0.0802108745
C  C109  1  0.90290000  0.04890000  0.15970000  1.0 0.1034707342
C  C110  1  0.59710000  0.95110000  0.65970000  1.0 0.1034707342
C  C111  1  0.40290000  0.45110000  0.84030000  1.0 0.1034707342
C  C112  1  0.09710000  0.54890000  0.34030000  1.0 0.1034707342
C  C113  1  0.94150000  0.05810000  0.88320000  1.0 -0.0603098557
C  C114  1  0.55850000  0.94190000  0.38320000  1.0 -0.0603098557
C  C115  1  0.44150000  0.44190000  0.11680000  1.0 -0.0603098557
C  C116  1  0.05850000  0.55810000  0.61680000  1.0 -0.0603098557
C  C117  1  0.93040000  0.16610000  0.88690000  1.0 -0.0991487205
C  C118  1  0.56960000  0.83390000  0.38690000  1.0 -0.0991487205
C  C119  1  0.43040000  0.33390000  0.11310000  1.0 -0.0991487205
C  C120  1  0.06960000  0.66610000  0.61310000  1.0 -0.0991487205
C  C121  1  0.14150000  0.13420000  0.97850000  1.0 -0.0193420026
C  C122  1  0.35850000  0.86580000  0.47850000  1.0 -0.0193420026
C  C123  1  0.64150000  0.36580000  0.02150000  1.0 -0.0193420026
C  C124  1  0.85850000  0.63420000  0.52150000  1.0 -0.0193420026
C  C125  1  0.44350000  0.23290000  0.28350000  1.0 -0.0991487205
C  C126  1  0.05650000  0.76710000  0.78350000  1.0 -0.0991487205
C  C127  1  0.94350000  0.26710000  0.71650000  1.0 -0.0991487205
C  C128  1  0.55650000  0.73290000  0.21650000  1.0 -0.0991487205
C  C129  1  0.97700000  0.06850000  0.11890000  1.0 -0.1913486388
C  C130  1  0.52300000  0.93150000  0.61890000  1.0 -0.1913486388
C  C131  1  0.47700000  0.43150000  0.88110000  1.0 -0.1913486388
C  C132  1  0.02300000  0.56850000  0.38110000  1.0 -0.1913486388
C  C133  1  0.64410000  0.45490000  0.30620000  1.0 0.5525293327
C  C134  1  0.85590000  0.54510000  0.80620000  1.0 0.5525293327
C  C135  1  0.14410000  0.04510000  0.69380000  1.0 0.5525293327
C  C136  1  0.35590000  0.95490000  0.19380000  1.0 0.5525293327
C  C137  1  0.77800000  0.25670000  0.88340000  1.0 0.3110967554
C  C138  1  0.72200000  0.74330000  0.38340000  1.0 0.3110967554
C  C139  1  0.27800000  0.24330000  0.11660000  1.0 0.3110967554
C  C140  1  0.22200000  0.75670000  0.61660000  1.0 0.3110967554
C  C141  1  0.39110000  0.97750000  0.79630000  1.0 -0.1831896216
C  C142  1  0.10890000  0.02250000  0.29630000  1.0 -0.1831896216
C  C143  1  0.89110000  0.52250000  0.20370000  1.0 -0.1831896216
C  C144  1  0.60890000  0.47750000  0.70370000  1.0 -0.1831896216
C  C145  1  0.91310000  0.18400000  0.93030000  1.0 -0.0799498255
C  C146  1  0.58690000  0.81600000  0.43030000  1.0 -0.0799498255
C  C147  1  0.41310000  0.31600000  0.06970000  1.0 -0.0799498255
C  C148  1  0.08690000  0.68400000  0.56970000  1.0 -0.0799498255
C  C149  1  0.70100000  0.98850000  0.90220000  1.0 -0.3441291102
C  C150  1  0.79900000  0.01150000  0.40220000  1.0 -0.3441291102
C  C151  1  0.20100000  0.51150000  0.09780000  1.0 -0.3441291102
C  C152  1  0.29900000  0.48850000  0.59780000  1.0 -0.3441291102
C  C153  1  0.78800000  0.04330000  0.91280000  1.0 -0.1603064131
C  C154  1  0.71200000  0.95670000  0.41280000  1.0 -0.1603064131
C  C155  1  0.28800000  0.45670000  0.08720000  1.0 -0.1603064131
C  C156  1  0.21200000  0.54330000  0.58720000  1.0 -0.1603064131
C  C157  1  0.40300000  0.10750000  0.93850000  0.49 -0.1698833205
C  C158  1  0.09700000  0.89250000  0.43850000  0.49 -0.1698833205
C  C159  1  0.90300000  0.39250000  0.06150000  0.49 -0.1698833205
C  C160  1  0.59700000  0.60750000  0.56150000  0.49 -0.1698833205
C  C161  1  0.30600000  0.16330000  0.94630000  0.49 -0.0799498255
C  C162  1  0.19400000  0.83670000  0.44630000  0.49 -0.0799498255
C  C163  1  0.80600000  0.33670000  0.05370000  0.49 -0.0799498255
C  C164  1  0.69400000  0.66330000  0.55370000  0.49 -0.0799498255
C  C165  1  0.37800000  0.17860000  0.92970000  0.51 -0.1831896216
C  C166  1  0.12200000  0.82140000  0.42970000  0.51 -0.1831896216
C  C167  1  0.87800000  0.32140000  0.07030000  0.51 -0.1831896216
C  C168  1  0.62200000  0.67860000  0.57030000  0.51 -0.1831896216
C  C169  1  0.30000000  0.12130000  0.94960000  0.51 -0.085787727
C  C170  1  0.20000000  0.87870000  0.44960000  0.51 -0.085787727
C  C171  1  0.80000000  0.37870000  0.05040000  0.51 -0.085787727
C  C172  1  0.70000000  0.62130000  0.55040000  0.51 -0.085787727
S  S1  1  0.06880000  0.00518000  0.85882000  1.0 0.1266606679
S  S2  1  0.43120000  0.99482000  0.35882000  1.0 0.1196771144
S  S3  1  0.56880000  0.49482000  0.14118000  1.0 0.1266606679
S  S4  1  0.93120000  0.50518000  0.64118000  1.0 0.1266606679
S  S5  1  0.16470000  0.10227000  0.03038000  1.0 0.0518512778
S  S6  1  0.33530000  0.89773000  0.53038000  1.0 0.0518512778
S  S7  1  0.66470000  0.39773000  0.96962000  1.0 0.0518512778
S  S8  1  0.83530000  0.60227000  0.46962000  1.0 0.0518512778
N  N1  1  0.67780000  0.99880000  0.76520000  1.0 -0.2490599998
N  N2  1  0.82220000  0.00120000  0.26520000  1.0 -0.2490599998
N  N3  1  0.17780000  0.50120000  0.23480000  1.0 -0.2490599998
N  N4  1  0.32220000  0.49880000  0.73480000  1.0 -0.2490599998
N  N5  1  0.73040000  0.05600000  0.16980000  1.0 -0.2490599998
N  N6  1  0.76960000  0.94400000  0.66980000  1.0 -0.2490599998
N  N7  1  0.23040000  0.44400000  0.83020000  1.0 -0.2490599998
N  N8  1  0.26960000  0.55600000  0.33020000  1.0 -0.2490599998
O  O1  1  0.67980000  0.49530000  0.33090000  1.0 -0.5337637686
O  O2  1  0.82020000  0.50470000  0.83090000  1.0 -0.5337637686
O  O3  1  0.17980000  0.00470000  0.66910000  1.0 -0.5337637686
O  O4  1  0.32020000  0.99530000  0.16910000  1.0 -0.5337637686
O  O5  1  0.68600000  0.14360000  0.26020000  1.0 -0.5582932257
O  O6  1  0.81400000  0.85640000  0.76020000  1.0 -0.5582932257
O  O7  1  0.18600000  0.35640000  0.73980000  1.0 -0.5582932257
O  O8  1  0.31400000  0.64360000  0.23980000  1.0 -0.5582932257
O  O9  1  0.45580000  0.08480000  0.24900000  1.0 -0.5533945881
O  O10  1  0.04420000  0.91520000  0.74900000  1.0 -0.5533945881
O  O11  1  0.95580000  0.41520000  0.75100000  1.0 -0.5533945881
O  O12  1  0.54420000  0.58480000  0.25100000  1.0 -0.5533945881
O  O13  1  0.50760000  0.45300000  0.27970000  1.0 -0.5582932257
O  O14  1  0.99240000  0.54700000  0.77970000  1.0 -0.5582932257
O  O15  1  0.00760000  0.04700000  0.72030000  1.0 -0.5582932257
O  O16  1  0.49240000  0.95300000  0.22030000  1.0 -0.5582932257
F  F1  1  0.96420000  0.28140000  0.94680000  1.0 -0.2315487176
F  F2  1  0.53580000  0.71860000  0.44680000  1.0 -0.2315487176
F  F3  1  0.46420000  0.21860000  0.05320000  1.0 -0.2315487176
F  F4  1  0.03580000  0.78140000  0.55320000  1.0 -0.2315487176
F  F5  1  0.01630000  0.23660000  0.83380000  1.0 -0.1603064131
F  F6  1  0.48370000  0.76340000  0.33380000  1.0 -0.1603064131
F  F7  1  0.51630000  0.26340000  0.16620000  1.0 -0.1603064131
F  F8  1  0.98370000  0.73660000  0.66620000  1.0 -0.1603064131
F  F9  1  0.76790000  0.19210000  0.82150000  1.0 -0.1603064131
F  F10  1  0.73210000  0.80790000  0.32150000  1.0 -0.1603064131
F  F11  1  0.26790000  0.30790000  0.17850000  1.0 -0.1603064131
F  F12  1  0.23210000  0.69210000  0.67850000  1.0 -0.1603064131
F  F13  1  0.70060000  0.24840000  0.96260000  1.0 -0.2178304051
F  F14  1  0.79940000  0.75160000  0.46260000  1.0 -0.2178304051
F  F15  1  0.20060000  0.25160000  0.03740000  1.0 -0.2178304051
F  F16  1  0.29940000  0.74840000  0.53740000  1.0 -0.2178304051
F  F17  1  0.81780000  0.31100000  0.87220000  1.0 -0.1603064131
F  F18  1  0.68220000  0.68900000  0.37220000  1.0 -0.1603064131
F  F19  1  0.31780000  0.18900000  0.12780000  1.0 -0.1603064131
F  F20  1  0.18220000  0.81100000  0.62780000  1.0 -0.1603064131
F  F21  1  0.60440000  0.25020000  0.88080000  1.0 -0.1603064131
F  F22  1  0.89560000  0.74980000  0.38080000  1.0 -0.1603064131
F  F23  1  0.10440000  0.24980000  0.11920000  1.0 -0.1603064131
F  F24  1  0.39560000  0.75020000  0.61920000  1.0 -0.1603064131
