# DDEC6 charges by PACMAN v1.1 (https://github.com/mtap-research/PACMAN-charge/)
data_c5cc05867h2_FSR_pacman
_symmetry_space_group_name_H-M   'P 1'
_cell_length_a   11.71260000
_cell_length_b   15.74320000
_cell_length_c   29.34240000
_cell_angle_alpha   90.00000000
_cell_angle_beta   90.12600000
_cell_angle_gamma   90.00000000
_symmetry_Int_Tables_number   1
_chemical_formula_structural   ZnC27(NO2)2
_chemical_formula_sum   'Zn8 C216 N16 O32'
_cell_volume   5410.54368087
_cell_formula_units_Z   8
loop_
 _symmetry_equiv_pos_site_id
 _symmetry_equiv_pos_as_xyz
  1  'x, y, z'
loop_
 _atom_site_type_symbol
 _atom_site_label
 _atom_site_symmetry_multiplicity
 _atom_site_fract_x
 _atom_site_fract_y
 _atom_site_fract_z
 _atom_site_occupancy
 _atom_site_charge
Zn  Zn1  1  0.02540000  0.36710000  0.90850000  1.0 0.8149085089
Zn  Zn2  1  0.02540000  0.13290000  0.40850000  1.0 0.8149085089
Zn  Zn3  1  0.97460000  0.86710000  0.59150000  1.0 0.8149085089
Zn  Zn4  1  0.97460000  0.63290000  0.09150000  1.0 0.8228335306
Zn  Zn5  1  0.47450000  0.86740000  0.90840000  1.0 0.8228335306
Zn  Zn6  1  0.47450000  0.63260000  0.40840000  1.0 0.8228335306
Zn  Zn7  1  0.52550000  0.36740000  0.59160000  1.0 0.8228335306
Zn  Zn8  1  0.52550000  0.13260000  0.09160000  1.0 0.8228335306
C  C1  1  0.27490000  0.38520000  0.91530000  1.0 0.2714299083
C  C2  1  0.27490000  0.11480000  0.41530000  1.0 0.2714299083
C  C3  1  0.18160000  0.52670000  0.92180000  1.0 0.0897004016
C  C4  1  0.18160000  0.97330000  0.42180000  1.0 0.0897004016
C  C5  1  0.39290000  0.51870000  0.93180000  1.0 0.1817131534
C  C6  1  0.39290000  0.98130000  0.43180000  1.0 0.1817131534
C  C7  1  0.37320000  0.42700000  0.92250000  1.0 -0.1265182326
C  C8  1  0.37320000  0.07300000  0.42250000  1.0 -0.1265182326
C  C9  1  0.29820000  0.55860000  0.92900000  1.0 -0.0613106683
C  C10  1  0.29820000  0.94140000  0.42900000  1.0 -0.0613106683
C  C11  1  0.75080000  0.57770000  0.92130000  1.0 0.1311399869
C  C12  1  0.75080000  0.92230000  0.42130000  1.0 0.1311399869
C  C13  1  0.67490000  0.61920000  0.92300000  1.0 0.0164196848
C  C14  1  0.67490000  0.88080000  0.42300000  1.0 0.0164196848
C  C15  1  0.58020000  0.59580000  0.91920000  1.0 -0.0205237102
C  C16  1  0.58020000  0.90420000  0.41920000  1.0 -0.0205237102
C  C17  1  0.50620000  0.56660000  0.94280000  1.0 -0.0205237102
C  C18  1  0.50620000  0.93340000  0.44280000  1.0 -0.0205237102
C  C19  1  0.77020000  0.53780000  0.96320000  1.0 -0.1265182326
C  C20  1  0.77020000  0.96220000  0.46320000  1.0 -0.1265182326
C  C21  1  0.86820000  0.48090000  0.95690000  1.0 0.1557445252
C  C22  1  0.86820000  0.01910000  0.45690000  1.0 0.1536536559
C  C23  1  0.86340000  0.49030000  0.87280000  1.0 0.1389122333
C  C24  1  0.86340000  0.00970000  0.37280000  1.0 0.1389122333
C  C25  1  0.77650000  0.55940000  0.87780000  1.0 -0.0830044925
C  C26  1  0.77650000  0.94060000  0.37780000  1.0 -0.0830044925
C  C27  1  0.06020000  0.20000000  0.33020000  1.0 0.5882629201
C  C28  1  0.06020000  0.30000000  0.83020000  1.0 0.5882629201
C  C29  1  0.04670000  0.21160000  0.27740000  1.0 -0.0102077556
C  C30  1  0.04670000  0.28840000  0.77740000  1.0 -0.0102077556
C  C31  1  0.96200000  0.19280000  0.25320000  1.0 -0.0102077556
C  C32  1  0.96200000  0.30720000  0.75320000  1.0 -0.0102077556
C  C33  1  0.14450000  0.23680000  0.25660000  1.0 0.0682984462
C  C34  1  0.14450000  0.26320000  0.75660000  1.0 0.0682984462
C  C35  1  0.94760000  0.20020000  0.20470000  1.0 -0.0613106683
C  C36  1  0.94760000  0.29980000  0.70470000  1.0 -0.0613106683
C  C37  1  0.13010000  0.25200000  0.20170000  1.0 -0.0510491907
C  C38  1  0.13010000  0.24800000  0.70170000  1.0 -0.0510491907
C  C39  1  0.03920000  0.21750000  0.18310000  1.0 0.0583434113
C  C40  1  0.03920000  0.28250000  0.68310000  1.0 0.0583434113
C  C41  1  0.05440000  0.23070000  0.13190000  1.0 0.0682984462
C  C42  1  0.05440000  0.26930000  0.63190000  1.0 0.0682984462
C  C43  1  0.96510000  0.27150000  0.10480000  1.0 -0.0291722891
C  C44  1  0.96510000  0.22850000  0.60480000  1.0 -0.0291722891
C  C45  1  0.15090000  0.20480000  0.10580000  1.0 -0.0696919036
C  C46  1  0.15090000  0.29520000  0.60580000  1.0 -0.0696919036
C  C47  1  0.96230000  0.28060000  0.05650000  1.0 0.0296186323
C  C48  1  0.96230000  0.21940000  0.55650000  1.0 0.0296186323
C  C49  1  0.16540000  0.21350000  0.05970000  1.0 0.006919199
C  C50  1  0.16540000  0.28650000  0.55970000  1.0 0.0049529316
C  C51  1  0.06790000  0.27210000  0.98640000  1.0 0.6013937637
C  C52  1  0.06790000  0.22790000  0.48640000  1.0 0.6013937637
C  C53  1  0.07570000  0.25400000  0.03610000  1.0 -0.0696919036
C  C54  1  0.07570000  0.24600000  0.53610000  1.0 -0.0696919036
C  C55  1  0.72510000  0.88520000  0.58470000  1.0 0.2714299083
C  C56  1  0.72510000  0.61480000  0.08470000  1.0 0.2714299083
C  C57  1  0.81840000  0.02670000  0.57820000  1.0 0.0897004016
C  C58  1  0.81840000  0.47330000  0.07820000  1.0 0.0897004016
C  C59  1  0.60710000  0.01870000  0.56820000  1.0 0.1817131534
C  C60  1  0.60710000  0.48130000  0.06820000  1.0 0.1817131534
C  C61  1  0.62680000  0.92700000  0.57750000  1.0 -0.1265182326
C  C62  1  0.62680000  0.57300000  0.07750000  1.0 -0.1265182326
C  C63  1  0.70180000  0.05860000  0.57100000  1.0 -0.0613106683
C  C64  1  0.70180000  0.44140000  0.07100000  1.0 -0.0613106683
C  C65  1  0.24920000  0.07770000  0.57870000  1.0 0.1311399869
C  C66  1  0.24920000  0.42230000  0.07870000  1.0 0.1311399869
C  C67  1  0.32510000  0.11920000  0.57700000  1.0 0.0164196848
C  C68  1  0.32510000  0.38080000  0.07700000  1.0 0.0164196848
C  C69  1  0.41980000  0.09580000  0.58080000  1.0 -0.0205237102
C  C70  1  0.41980000  0.40420000  0.08080000  1.0 -0.0205237102
C  C71  1  0.49380000  0.06660000  0.55720000  1.0 -0.0205237102
C  C72  1  0.49380000  0.43340000  0.05720000  1.0 -0.0205237102
C  C73  1  0.22980000  0.03780000  0.53680000  1.0 -0.1243316487
C  C74  1  0.22980000  0.46220000  0.03680000  1.0 -0.1243316487
C  C75  1  0.13180000  0.98090000  0.54310000  1.0 0.1557445252
C  C76  1  0.13180000  0.51910000  0.04310000  1.0 0.1557445252
C  C77  1  0.13660000  0.99030000  0.62720000  1.0 0.1389122333
C  C78  1  0.13660000  0.50970000  0.12720000  1.0 0.1389122333
C  C79  1  0.22350000  0.05940000  0.62220000  1.0 -0.0830044925
C  C80  1  0.22350000  0.44060000  0.12220000  1.0 -0.0830044925
C  C81  1  0.93980000  0.70000000  0.16980000  1.0 0.5882629201
C  C82  1  0.93980000  0.80000000  0.66980000  1.0 0.5882629201
C  C83  1  0.95330000  0.71160000  0.22260000  1.0 -0.0102077556
C  C84  1  0.95330000  0.78840000  0.72260000  1.0 -0.0102077556
C  C85  1  0.03800000  0.69280000  0.24680000  1.0 -0.0205237102
C  C86  1  0.03800000  0.80720000  0.74680000  1.0 -0.0102077556
C  C87  1  0.85550000  0.73680000  0.24340000  1.0 0.0583434113
C  C88  1  0.85550000  0.76320000  0.74340000  1.0 0.0583434113
C  C89  1  0.05240000  0.70020000  0.29530000  1.0 -0.0613106683
C  C90  1  0.05240000  0.79980000  0.79530000  1.0 -0.0613106683
C  C91  1  0.86990000  0.75200000  0.29830000  1.0 -0.0510491907
C  C92  1  0.86990000  0.74800000  0.79830000  1.0 -0.0510491907
C  C93  1  0.96080000  0.71750000  0.31690000  1.0 0.0583434113
C  C94  1  0.96080000  0.78250000  0.81690000  1.0 0.0583434113
C  C95  1  0.94560000  0.73070000  0.36810000  1.0 0.0682984462
C  C96  1  0.94560000  0.76930000  0.86810000  1.0 0.0682984462
C  C97  1  0.03490000  0.77150000  0.39520000  1.0 -0.0291722891
C  C98  1  0.03490000  0.72850000  0.89520000  1.0 -0.0291722891
C  C99  1  0.84910000  0.70480000  0.39420000  1.0 -0.0696919036
C  C100  1  0.84910000  0.79520000  0.89420000  1.0 -0.0696919036
C  C101  1  0.03770000  0.78060000  0.44350000  1.0 0.0296186323
C  C102  1  0.03770000  0.71940000  0.94350000  1.0 0.0296186323
C  C103  1  0.83460000  0.71350000  0.44030000  1.0 0.0049529316
C  C104  1  0.83460000  0.78650000  0.94030000  1.0 0.006919199
C  C105  1  0.93210000  0.77210000  0.51360000  1.0 0.6013937637
C  C106  1  0.93210000  0.72790000  0.01360000  1.0 0.6013937637
C  C107  1  0.92430000  0.75400000  0.46390000  1.0 -0.0696919036
C  C108  1  0.92430000  0.74600000  0.96390000  1.0 -0.0696919036
C  C109  1  0.43310000  0.69960000  0.32970000  1.0 0.5803272769
C  C110  1  0.43310000  0.80040000  0.82970000  1.0 0.5803272769
C  C111  1  0.63250000  0.98770000  0.95520000  1.0 0.1389122333
C  C112  1  0.63250000  0.51230000  0.45520000  1.0 0.1389122333
C  C113  1  0.65000000  0.00260000  0.88000000  1.0 0.2409220084
C  C114  1  0.65000000  0.49740000  0.38000000  1.0 0.2409220084
C  C115  1  0.45350000  0.71140000  0.27710000  1.0 0.006919199
C  C116  1  0.45350000  0.78860000  0.77710000  1.0 0.006919199
C  C117  1  0.73460000  0.07030000  0.88250000  1.0 -0.0972824014
C  C118  1  0.73460000  0.42970000  0.38250000  1.0 -0.0972824014
C  C119  1  0.53470000  0.69000000  0.25190000  1.0 -0.0205237102
C  C120  1  0.53470000  0.81000000  0.75190000  1.0 -0.0205237102
C  C121  1  0.72780000  0.05770000  0.96370000  1.0 -0.0613106683
C  C122  1  0.72780000  0.44230000  0.46370000  1.0 -0.0613106683
C  C123  1  0.76310000  0.08150000  0.92370000  1.0 0.0776928131
C  C124  1  0.76310000  0.41850000  0.42370000  1.0 0.0776928131
C  C125  1  0.36800000  0.75020000  0.20390000  1.0 -0.0024216935
C  C126  1  0.36800000  0.74980000  0.70390000  1.0 -0.0024216935
C  C127  1  0.86280000  0.12630000  0.92110000  1.0 0.006919199
C  C128  1  0.86280000  0.37370000  0.42110000  1.0 0.0049529316
C  C129  1  0.55010000  0.69840000  0.20530000  1.0 -0.089037494
C  C130  1  0.55010000  0.80160000  0.70530000  1.0 -0.089037494
C  C131  1  0.96110000  0.09350000  0.89950000  1.0 0.0398459814
C  C132  1  0.96110000  0.40650000  0.39950000  1.0 0.0398459814
C  C133  1  0.46460000  0.71870000  0.18320000  1.0 0.0583434113
C  C134  1  0.46460000  0.78130000  0.68320000  1.0 0.0583434113
C  C135  1  0.99340000  0.06930000  0.94800000  1.0 -0.0205237102
C  C136  1  0.99340000  0.43070000  0.44800000  1.0 -0.0205237102
C  C137  1  0.45250000  0.73360000  0.13150000  1.0 0.0897004016
C  C138  1  0.45250000  0.76640000  0.63150000  1.0 0.0897004016
C  C139  1  0.11400000  0.01790000  0.93000000  1.0 0.1905128404
C  C140  1  0.11400000  0.48210000  0.43000000  1.0 0.1905128404
C  C141  1  0.35170000  0.70760000  0.10410000  1.0 -0.0696919036
C  C142  1  0.35170000  0.79240000  0.60410000  1.0 -0.0696919036
C  C143  1  0.12570000  0.92780000  0.91870000  1.0 -0.171527113
C  C144  1  0.12570000  0.57220000  0.41870000  1.0 -0.171527113
C  C145  1  0.53290000  0.77220000  0.10400000  1.0 -0.0291722891
C  C146  1  0.53290000  0.72780000  0.60400000  1.0 -0.0291722891
C  C147  1  0.22410000  0.89150000  0.91410000  1.0 0.2409220084
C  C148  1  0.22410000  0.60850000  0.41410000  1.0 0.2409220084
C  C149  1  0.33130000  0.71600000  0.05940000  1.0 -0.0102077556
C  C150  1  0.33130000  0.78400000  0.55940000  1.0 -0.0102077556
C  C151  1  0.21720000  0.07270000  0.92740000  1.0 -0.0696919036
C  C152  1  0.21720000  0.42730000  0.42740000  1.0 -0.0696919036
C  C153  1  0.43280000  0.77320000  0.98800000  1.0 0.6013937637
C  C154  1  0.43280000  0.72680000  0.48800000  1.0 0.6013937637
C  C155  1  0.42570000  0.75160000  0.03670000  1.0 -0.089037494
C  C156  1  0.42570000  0.74840000  0.53670000  1.0 -0.089037494
C  C157  1  0.31680000  0.02570000  0.92540000  1.0 0.1557445252
C  C158  1  0.31680000  0.47430000  0.42540000  1.0 0.1557445252
C  C159  1  0.53130000  0.78020000  0.05550000  1.0 0.0296186323
C  C160  1  0.53130000  0.71980000  0.55550000  1.0 0.0296186323
C  C161  1  0.35680000  0.73460000  0.25620000  1.0 0.0296186323
C  C162  1  0.35680000  0.76540000  0.75620000  1.0 0.0296186323
C  C163  1  0.56690000  0.19960000  0.17030000  1.0 0.5803272769
C  C164  1  0.56690000  0.30040000  0.67030000  1.0 0.5803272769
C  C165  1  0.36750000  0.48770000  0.54480000  1.0 0.1389122333
C  C166  1  0.36750000  0.01230000  0.04480000  1.0 0.1389122333
C  C167  1  0.35000000  0.50260000  0.62000000  1.0 0.2409220084
C  C168  1  0.35000000  0.99740000  0.12000000  1.0 0.2409220084
C  C169  1  0.54650000  0.21140000  0.22290000  1.0 0.006919199
C  C170  1  0.54650000  0.28860000  0.72290000  1.0 0.006919199
C  C171  1  0.26540000  0.57030000  0.61750000  1.0 -0.0972824014
C  C172  1  0.26540000  0.92970000  0.11750000  1.0 -0.0972824014
C  C173  1  0.46530000  0.19000000  0.24810000  1.0 -0.0205237102
C  C174  1  0.46530000  0.31000000  0.74810000  1.0 -0.0205237102
C  C175  1  0.27220000  0.55770000  0.53630000  1.0 -0.0696919036
C  C176  1  0.27220000  0.94230000  0.03630000  1.0 -0.0696919036
C  C177  1  0.23690000  0.58150000  0.57630000  1.0 0.0776928131
C  C178  1  0.23690000  0.91850000  0.07630000  1.0 0.0776928131
C  C179  1  0.63200000  0.25020000  0.29610000  1.0 -0.0024216935
C  C180  1  0.63200000  0.24980000  0.79610000  1.0 -0.0024216935
C  C181  1  0.13720000  0.62630000  0.57890000  1.0 0.0049529316
C  C182  1  0.13720000  0.87370000  0.07890000  1.0 0.006919199
C  C183  1  0.44990000  0.19840000  0.29470000  1.0 -0.089037494
C  C184  1  0.44990000  0.30160000  0.79470000  1.0 -0.089037494
C  C185  1  0.03890000  0.59350000  0.60050000  1.0 0.0398459814
C  C186  1  0.03890000  0.90650000  0.10050000  1.0 0.0398459814
C  C187  1  0.53540000  0.21870000  0.31680000  1.0 0.0583434113
C  C188  1  0.53540000  0.28130000  0.81680000  1.0 0.0583434113
C  C189  1  0.00660000  0.56930000  0.55200000  1.0 -0.0205237102
C  C190  1  0.00660000  0.93070000  0.05200000  1.0 -0.0205237102
C  C191  1  0.54750000  0.23360000  0.36850000  1.0 0.0897004016
C  C192  1  0.54750000  0.26640000  0.86850000  1.0 0.0897004016
C  C193  1  0.88600000  0.51790000  0.57000000  1.0 0.1905128404
C  C194  1  0.88600000  0.98210000  0.07000000  1.0 0.1905128404
C  C195  1  0.64830000  0.20760000  0.39590000  1.0 -0.0696919036
C  C196  1  0.64830000  0.29240000  0.89590000  1.0 -0.0696919036
C  C197  1  0.87430000  0.42780000  0.58130000  1.0 -0.171527113
C  C198  1  0.87430000  0.07220000  0.08130000  1.0 -0.171527113
C  C199  1  0.46710000  0.27220000  0.39600000  1.0 -0.0291722891
C  C200  1  0.46710000  0.22780000  0.89600000  1.0 -0.0350240722
C  C201  1  0.77590000  0.39150000  0.58590000  1.0 0.2409220084
C  C202  1  0.77590000  0.10850000  0.08590000  1.0 0.2409220084
C  C203  1  0.66870000  0.21600000  0.44060000  1.0 -0.0102077556
C  C204  1  0.66870000  0.28400000  0.94060000  1.0 -0.0102077556
C  C205  1  0.78280000  0.57270000  0.57260000  1.0 -0.0696919036
C  C206  1  0.78280000  0.92730000  0.07260000  1.0 -0.0696919036
C  C207  1  0.56720000  0.27320000  0.51200000  1.0 0.6013937637
C  C208  1  0.56720000  0.22680000  0.01200000  1.0 0.6013937637
C  C209  1  0.57430000  0.25160000  0.46330000  1.0 -0.089037494
C  C210  1  0.57430000  0.24840000  0.96330000  1.0 -0.089037494
C  C211  1  0.68320000  0.52570000  0.57460000  1.0 0.1557445252
C  C212  1  0.68320000  0.97430000  0.07460000  1.0 0.1557445252
C  C213  1  0.46870000  0.28020000  0.44450000  1.0 0.0296186323
C  C214  1  0.46870000  0.21980000  0.94450000  1.0 0.0296186323
C  C215  1  0.64320000  0.23460000  0.24380000  1.0 0.0296186323
C  C216  1  0.64320000  0.26540000  0.74380000  1.0 0.0296186323
N  N1  1  0.17350000  0.43180000  0.91510000  1.0 -0.2441389814
N  N2  1  0.17350000  0.06820000  0.41510000  1.0 -0.2460912918
N  N3  1  0.90040000  0.46540000  0.91420000  1.0 -0.196798756
N  N4  1  0.90040000  0.03460000  0.41420000  1.0 -0.196798756
N  N5  1  0.82650000  0.93180000  0.58490000  1.0 -0.2460912918
N  N6  1  0.82650000  0.56820000  0.08490000  1.0 -0.2460912918
N  N7  1  0.09960000  0.96540000  0.58580000  1.0 -0.196798756
N  N8  1  0.09960000  0.53460000  0.08580000  1.0 -0.196798756
N  N9  1  0.60040000  0.96350000  0.91350000  1.0 -0.214724268
N  N10  1  0.60040000  0.53650000  0.41350000  1.0 -0.214724268
N  N11  1  0.32470000  0.93310000  0.91600000  1.0 -0.2255686104
N  N12  1  0.32470000  0.56690000  0.41600000  1.0 -0.2255686104
N  N13  1  0.39960000  0.46350000  0.58650000  1.0 -0.214724268
N  N14  1  0.39960000  0.03650000  0.08650000  1.0 -0.215974699
N  N15  1  0.67530000  0.43310000  0.58400000  1.0 -0.2255686104
N  N16  1  0.67530000  0.06690000  0.08400000  1.0 -0.2255686104
O  O1  1  0.97970000  0.17270000  0.34750000  1.0 -0.4731119827
O  O2  1  0.97970000  0.32730000  0.84750000  1.0 -0.4773537174
O  O3  1  0.15160000  0.22740000  0.34760000  1.0 -0.5393953577
O  O4  1  0.15160000  0.27260000  0.84760000  1.0 -0.5393953577
O  O5  1  0.99320000  0.31800000  0.96630000  1.0 -0.5393953577
O  O6  1  0.99320000  0.18200000  0.46630000  1.0 -0.5393953577
O  O7  1  0.15900000  0.25170000  0.96530000  1.0 -0.5393953577
O  O8  1  0.15900000  0.24830000  0.46530000  1.0 -0.5393953577
O  O9  1  0.02030000  0.67270000  0.15250000  1.0 -0.4773537174
O  O10  1  0.02030000  0.82730000  0.65250000  1.0 -0.4731119827
O  O11  1  0.84840000  0.72740000  0.15240000  1.0 -0.5393953577
O  O12  1  0.84840000  0.77260000  0.65240000  1.0 -0.5393953577
O  O13  1  0.00680000  0.81800000  0.53370000  1.0 -0.5393953577
O  O14  1  0.00680000  0.68200000  0.03370000  1.0 -0.5393953577
O  O15  1  0.84100000  0.75170000  0.53470000  1.0 -0.5393953577
O  O16  1  0.84100000  0.74830000  0.03470000  1.0 -0.5393953577
O  O17  1  0.34920000  0.72880000  0.34830000  1.0 -0.4927928403
O  O18  1  0.34920000  0.77120000  0.84830000  1.0 -0.4927928403
O  O19  1  0.52180000  0.67430000  0.34680000  1.0 -0.5005365863
O  O20  1  0.52180000  0.82570000  0.84680000  1.0 -0.5005365863
O  O21  1  0.50540000  0.81910000  0.96520000  1.0 -0.5393953577
O  O22  1  0.50540000  0.68090000  0.46520000  1.0 -0.5393953577
O  O23  1  0.34280000  0.75370000  0.96530000  1.0 -0.5393953577
O  O24  1  0.34280000  0.74630000  0.46530000  1.0 -0.5393953577
O  O25  1  0.65080000  0.22880000  0.15170000  1.0 -0.4927928403
O  O26  1  0.65080000  0.27120000  0.65170000  1.0 -0.4927928403
O  O27  1  0.47820000  0.17430000  0.15320000  1.0 -0.5005365863
O  O28  1  0.47820000  0.32570000  0.65320000  1.0 -0.5005365863
O  O29  1  0.49460000  0.31910000  0.53480000  1.0 -0.5393953577
O  O30  1  0.49460000  0.18090000  0.03480000  1.0 -0.5393953577
O  O31  1  0.65720000  0.25370000  0.53470000  1.0 -0.5393953577
O  O32  1  0.65720000  0.24630000  0.03470000  1.0 -0.5393953577
