# DDEC6 charges by PACMAN v1.1 (https://github.com/mtap-research/PACMAN-charge/)
data_c6dt04208b2_FSR_pacman
_symmetry_space_group_name_H-M   'P 1'
_cell_length_a   7.16000000
_cell_length_b   19.62600000
_cell_length_c   34.39800000
_cell_angle_alpha   90.00000000
_cell_angle_beta   90.00000000
_cell_angle_gamma   90.00000000
_symmetry_Int_Tables_number   1
_chemical_formula_structural   Fe3H40C56(N11O)2
_chemical_formula_sum   'Fe6 H80 C112 N44 O4'
_cell_volume   4833.68125968
_cell_formula_units_Z   2
loop_
 _symmetry_equiv_pos_site_id
 _symmetry_equiv_pos_as_xyz
  1  'x, y, z'
loop_
 _atom_site_type_symbol
 _atom_site_label
 _atom_site_symmetry_multiplicity
 _atom_site_fract_x
 _atom_site_fract_y
 _atom_site_fract_z
 _atom_site_occupancy
 _atom_site_charge
Fe  Fe1  1  0.50000000  0.50000000  0.50000000  1.0 0.4930253703
Fe  Fe2  1  0.00000000  0.50000000  0.00000000  1.0 0.4930253703
Fe  Fe3  1  0.25000000  0.00000000  0.25000000  1.0 0.6408652891
Fe  Fe4  1  0.75000000  0.00000000  0.75000000  1.0 0.6408652891
Fe  Fe5  1  0.75000000  0.00000000  0.25000000  1.0 0.6408652891
Fe  Fe6  1  0.25000000  0.00000000  0.75000000  1.0 0.6408652891
H  H1  1  0.22440000  0.31140000  0.39580000  1.0 0.1422057143
H  H2  1  0.22460000  0.22370000  0.35040000  1.0 0.1335093309
H  H3  1  0.72440000  0.31140000  0.89580000  1.0 0.1422057143
H  H4  1  0.72460000  0.22370000  0.85040000  1.0 0.1335093309
H  H5  1  0.77560000  0.31140000  0.60420000  1.0 0.1422057143
H  H6  1  0.77540000  0.22370000  0.64960000  1.0 0.1335093309
H  H7  1  0.27560000  0.31140000  0.10420000  1.0 0.1422057143
H  H8  1  0.27540000  0.22370000  0.14960000  1.0 0.1335093309
H  H9  1  0.77560000  0.68860000  0.39580000  1.0 0.1422057143
H  H10  1  0.77540000  0.77630000  0.35040000  1.0 0.1335093309
H  H11  1  0.27560000  0.68860000  0.89580000  1.0 0.1422057143
H  H12  1  0.27540000  0.77630000  0.85040000  1.0 0.1335093309
H  H13  1  0.22440000  0.68860000  0.60420000  1.0 0.1422057143
H  H14  1  0.22460000  0.77630000  0.64960000  1.0 0.1335093309
H  H15  1  0.72440000  0.68860000  0.10420000  1.0 0.1422057143
H  H16  1  0.72460000  0.77630000  0.14960000  1.0 0.1335093309
H  H17  1  0.77560000  0.68860000  0.60420000  1.0 0.1422057143
H  H18  1  0.77540000  0.77630000  0.64960000  1.0 0.1335093309
H  H19  1  0.27560000  0.68860000  0.10420000  1.0 0.1422057143
H  H20  1  0.27540000  0.77630000  0.14960000  1.0 0.1335093309
H  H21  1  0.22440000  0.68860000  0.39580000  1.0 0.1422057143
H  H22  1  0.22460000  0.77630000  0.35040000  1.0 0.1335093309
H  H23  1  0.72440000  0.68860000  0.89580000  1.0 0.1422057143
H  H24  1  0.72460000  0.77630000  0.85040000  1.0 0.1335093309
H  H25  1  0.22440000  0.31140000  0.60420000  1.0 0.1422057143
H  H26  1  0.22460000  0.22370000  0.64960000  1.0 0.1335093309
H  H27  1  0.72440000  0.31140000  0.10420000  1.0 0.1422057143
H  H28  1  0.72460000  0.22370000  0.14960000  1.0 0.1335093309
H  H29  1  0.77560000  0.31140000  0.39580000  1.0 0.1422057143
H  H30  1  0.77540000  0.22370000  0.35040000  1.0 0.1335093309
H  H31  1  0.27560000  0.31140000  0.89580000  1.0 0.1422057143
H  H32  1  0.27540000  0.22370000  0.85040000  1.0 0.1335093309
H  H33  1  0.50000000  0.24580000  0.46410000  1.0 0.1490346477
H  H34  1  0.50000000  0.43760000  0.35500000  1.0 0.1422057143
H  H35  1  0.00000000  0.24580000  0.96410000  1.0 0.1490346477
H  H36  1  0.00000000  0.43760000  0.85500000  1.0 0.1422057143
H  H37  1  0.50000000  0.24580000  0.53590000  1.0 0.1490346477
H  H38  1  0.50000000  0.43760000  0.64500000  1.0 0.1422057143
H  H39  1  0.00000000  0.24580000  0.03590000  1.0 0.1490346477
H  H40  1  0.00000000  0.43760000  0.14500000  1.0 0.1422057143
H  H41  1  0.50000000  0.75420000  0.46410000  1.0 0.1490346477
H  H42  1  0.50000000  0.56240000  0.35500000  1.0 0.1422057143
H  H43  1  0.00000000  0.75420000  0.96410000  1.0 0.1490346477
H  H44  1  0.00000000  0.56240000  0.85500000  1.0 0.1422057143
H  H45  1  0.50000000  0.75420000  0.53590000  1.0 0.1490346477
H  H46  1  0.50000000  0.56240000  0.64500000  1.0 0.1422057143
H  H47  1  0.00000000  0.75420000  0.03590000  1.0 0.1490346477
H  H48  1  0.00000000  0.56240000  0.14500000  1.0 0.1422057143
H  H49  1  0.84980000  0.59610000  0.47740000  0.5 0.0822102916
H  H50  1  0.84310000  0.59770000  0.52110000  0.5 0.0822102916
H  H51  1  0.84870000  0.54110000  0.55350000  0.5 0.1014143829
H  H52  1  0.85350000  0.46010000  0.55570000  0.5 0.1014143829
H  H53  1  0.34980000  0.59610000  0.97740000  0.5 0.0822102916
H  H54  1  0.34310000  0.59770000  0.02110000  0.5 0.0822102916
H  H55  1  0.34870000  0.54110000  0.05350000  0.5 0.1014143829
H  H56  1  0.35350000  0.46010000  0.05570000  0.5 0.1014143829
H  H57  1  0.15020000  0.59610000  0.52260000  0.5 0.0822102916
H  H58  1  0.15690000  0.59770000  0.47890000  0.5 0.0822102916
H  H59  1  0.15130000  0.54110000  0.44650000  0.5 0.1014143829
H  H60  1  0.14650000  0.46010000  0.44430000  0.5 0.1014143829
H  H61  1  0.65020000  0.59610000  0.02260000  0.5 0.0822102916
H  H62  1  0.65690000  0.59770000  0.97890000  0.5 0.0822102916
H  H63  1  0.65130000  0.54110000  0.94650000  0.5 0.1014143829
H  H64  1  0.64650000  0.46010000  0.94430000  0.5 0.1014143829
H  H65  1  0.15020000  0.40390000  0.47740000  0.5 0.0822102916
H  H66  1  0.15690000  0.40230000  0.52110000  0.5 0.0822102916
H  H67  1  0.15130000  0.45890000  0.55350000  0.5 0.1014143829
H  H68  1  0.14650000  0.53990000  0.55570000  0.5 0.1014143829
H  H69  1  0.65020000  0.40390000  0.97740000  0.5 0.0822102916
H  H70  1  0.65690000  0.40230000  0.02110000  0.5 0.0822102916
H  H71  1  0.65130000  0.45890000  0.05350000  0.5 0.1014143829
H  H72  1  0.64650000  0.53990000  0.05570000  0.5 0.1014143829
H  H73  1  0.84980000  0.40390000  0.52260000  0.5 0.0822102916
H  H74  1  0.84310000  0.40230000  0.47890000  0.5 0.0822102916
H  H75  1  0.84870000  0.45890000  0.44650000  0.5 0.1014143829
H  H76  1  0.85350000  0.53990000  0.44430000  0.5 0.1014143829
H  H77  1  0.34980000  0.40390000  0.02260000  0.5 0.0822102916
H  H78  1  0.34310000  0.40230000  0.97890000  0.5 0.0822102916
H  H79  1  0.34870000  0.45890000  0.94650000  0.5 0.1014143829
H  H80  1  0.35350000  0.53990000  0.94430000  0.5 0.1014143829
H  H81  1  0.15020000  0.40390000  0.52260000  0.5 0.0822102916
H  H82  1  0.15690000  0.40230000  0.47890000  0.5 0.0822102916
H  H83  1  0.15130000  0.45890000  0.44650000  0.5 0.1014143829
H  H84  1  0.14650000  0.53990000  0.44430000  0.5 0.1014143829
H  H85  1  0.65020000  0.40390000  0.02260000  0.5 0.0822102916
H  H86  1  0.65690000  0.40230000  0.97890000  0.5 0.0822102916
H  H87  1  0.65130000  0.45890000  0.94650000  0.5 0.1014143829
H  H88  1  0.64650000  0.53990000  0.94430000  0.5 0.1014143829
H  H89  1  0.84980000  0.40390000  0.47740000  0.5 0.0822102916
H  H90  1  0.84310000  0.40230000  0.52110000  0.5 0.0822102916
H  H91  1  0.84870000  0.45890000  0.55350000  0.5 0.1014143829
H  H92  1  0.85350000  0.53990000  0.55570000  0.5 0.1014143829
H  H93  1  0.34980000  0.40390000  0.97740000  0.5 0.0822102916
H  H94  1  0.34310000  0.40230000  0.02110000  0.5 0.0822102916
H  H95  1  0.34870000  0.45890000  0.05350000  0.5 0.1014143829
H  H96  1  0.35350000  0.53990000  0.05570000  0.5 0.1014143829
H  H97  1  0.84980000  0.59610000  0.52260000  0.5 0.0822102916
H  H98  1  0.84310000  0.59770000  0.47890000  0.5 0.0822102916
H  H99  1  0.84870000  0.54110000  0.44650000  0.5 0.1014143829
H  H100  1  0.85350000  0.46010000  0.44430000  0.5 0.1014143829
H  H101  1  0.34980000  0.59610000  0.02260000  0.5 0.0822102916
H  H102  1  0.34310000  0.59770000  0.97890000  0.5 0.0822102916
H  H103  1  0.34870000  0.54110000  0.94650000  0.5 0.1014143829
H  H104  1  0.35350000  0.46010000  0.94430000  0.5 0.1014143829
H  H105  1  0.15020000  0.59610000  0.47740000  0.5 0.0822102916
H  H106  1  0.15690000  0.59770000  0.52110000  0.5 0.0822102916
H  H107  1  0.15130000  0.54110000  0.55350000  0.5 0.1014143829
H  H108  1  0.14650000  0.46010000  0.55570000  0.5 0.1014143829
H  H109  1  0.65020000  0.59610000  0.97740000  0.5 0.0822102916
H  H110  1  0.65690000  0.59770000  0.02110000  0.5 0.0822102916
H  H111  1  0.65130000  0.54110000  0.05350000  0.5 0.1014143829
H  H112  1  0.64650000  0.46010000  0.05570000  0.5 0.1014143829
C  C1  1  0.33850000  0.29490000  0.38560000  1.0 -0.1574486835
C  C2  1  0.33890000  0.24240000  0.35930000  1.0 -0.0975238592
C  C3  1  0.83850000  0.29490000  0.88560000  1.0 -0.1574486835
C  C4  1  0.83890000  0.24240000  0.85930000  1.0 -0.0928901189
C  C5  1  0.66150000  0.29490000  0.61440000  1.0 -0.1574486835
C  C6  1  0.66110000  0.24240000  0.64070000  1.0 -0.0928901189
C  C7  1  0.16150000  0.29490000  0.11440000  1.0 -0.1574486835
C  C8  1  0.16110000  0.24240000  0.14070000  1.0 -0.0975238592
C  C9  1  0.66150000  0.70510000  0.38560000  1.0 -0.1574486835
C  C10  1  0.66110000  0.75760000  0.35930000  1.0 -0.0975238592
C  C11  1  0.16150000  0.70510000  0.88560000  1.0 -0.1574486835
C  C12  1  0.16110000  0.75760000  0.85930000  1.0 -0.0975238592
C  C13  1  0.33850000  0.70510000  0.61440000  1.0 -0.1574486835
C  C14  1  0.33890000  0.75760000  0.64070000  1.0 -0.0975238592
C  C15  1  0.83850000  0.70510000  0.11440000  1.0 -0.1574486835
C  C16  1  0.83890000  0.75760000  0.14070000  1.0 -0.0975238592
C  C17  1  0.66150000  0.70510000  0.61440000  1.0 -0.1574486835
C  C18  1  0.66110000  0.75760000  0.64070000  1.0 -0.0928901189
C  C19  1  0.16150000  0.70510000  0.11440000  1.0 -0.1574486835
C  C20  1  0.16110000  0.75760000  0.14070000  1.0 -0.0975238592
C  C21  1  0.33850000  0.70510000  0.38560000  1.0 -0.1574486835
C  C22  1  0.33890000  0.75760000  0.35930000  1.0 -0.0975238592
C  C23  1  0.83850000  0.70510000  0.88560000  1.0 -0.1574486835
C  C24  1  0.83890000  0.75760000  0.85930000  1.0 -0.0975238592
C  C25  1  0.33850000  0.29490000  0.61440000  1.0 -0.1574486835
C  C26  1  0.33890000  0.24240000  0.64070000  1.0 -0.0975238592
C  C27  1  0.83850000  0.29490000  0.11440000  1.0 -0.1574486835
C  C28  1  0.83890000  0.24240000  0.14070000  1.0 -0.0928901189
C  C29  1  0.66150000  0.29490000  0.38560000  1.0 -0.1574486835
C  C30  1  0.66110000  0.24240000  0.35930000  1.0 -0.0928901189
C  C31  1  0.16150000  0.29490000  0.88560000  1.0 -0.1574486835
C  C32  1  0.16110000  0.24240000  0.85930000  1.0 -0.0975238592
C  C33  1  0.50000000  0.35510000  0.46795000  1.0 -0.0103029745
C  C34  1  0.50000000  0.37620000  0.42969000  1.0 -0.3002321679
C  C35  1  0.50000000  0.44370000  0.41754000  1.0 -0.0237713974
C  C36  1  0.50000000  0.46620000  0.37734000  1.0 -0.1574486835
C  C37  1  0.50000000  0.32140000  0.39899000  1.0 0.1121658519
C  C38  1  0.50000000  0.21520000  0.34570000  1.0 0.0371515359
C  C39  1  0.50000000  0.15750000  0.31840000  1.0 0.2301956345
C  C40  1  0.50000000  0.28490000  0.48064000  1.0 -0.1574486835
C  C41  1  0.00000000  0.35510000  0.96795000  1.0 -0.0103029745
C  C42  1  0.00000000  0.37620000  0.92969000  1.0 -0.3002321679
C  C43  1  0.00000000  0.44370000  0.91754000  1.0 -0.0250281687
C  C44  1  0.00000000  0.46620000  0.87734000  1.0 -0.1574486835
C  C45  1  0.00000000  0.32140000  0.89899000  1.0 0.1121658519
C  C46  1  0.00000000  0.21520000  0.84570000  1.0 0.0371515359
C  C47  1  0.00000000  0.15750000  0.81840000  1.0 0.2301956345
C  C48  1  0.00000000  0.28490000  0.98064000  1.0 -0.1574486835
C  C49  1  0.50000000  0.35510000  0.53205000  1.0 -0.0103029745
C  C50  1  0.50000000  0.37620000  0.57031000  1.0 -0.3002321679
C  C51  1  0.50000000  0.44370000  0.58246000  1.0 -0.0237713974
C  C52  1  0.50000000  0.46620000  0.62266000  1.0 -0.1574486835
C  C53  1  0.50000000  0.32140000  0.60101000  1.0 0.1121658519
C  C54  1  0.50000000  0.21520000  0.65430000  1.0 0.0371515359
C  C55  1  0.50000000  0.15750000  0.68160000  1.0 0.2301956345
C  C56  1  0.50000000  0.28490000  0.51936000  1.0 -0.1574486835
C  C57  1  0.00000000  0.35510000  0.03205000  1.0 -0.0103029745
C  C58  1  0.00000000  0.37620000  0.07031000  1.0 -0.3002321679
C  C59  1  0.00000000  0.44370000  0.08246000  1.0 -0.0237713974
C  C60  1  0.00000000  0.46620000  0.12266000  1.0 -0.1574486835
C  C61  1  0.00000000  0.32140000  0.10101000  1.0 0.1121658519
C  C62  1  0.00000000  0.21520000  0.15430000  1.0 0.0371515359
C  C63  1  0.00000000  0.15750000  0.18160000  1.0 0.2301956345
C  C64  1  0.00000000  0.28490000  0.01936000  1.0 -0.1574486835
C  C65  1  0.50000000  0.64490000  0.46795000  1.0 -0.0103029745
C  C66  1  0.50000000  0.62380000  0.42969000  1.0 -0.3002321679
C  C67  1  0.50000000  0.55630000  0.41754000  1.0 -0.0237713974
C  C68  1  0.50000000  0.53380000  0.37734000  1.0 -0.1574486835
C  C69  1  0.50000000  0.67860000  0.39899000  1.0 0.1121658519
C  C70  1  0.50000000  0.78480000  0.34570000  1.0 0.0371515359
C  C71  1  0.50000000  0.84250000  0.31840000  1.0 0.2301956345
C  C72  1  0.50000000  0.71510000  0.48064000  1.0 -0.1574486835
C  C73  1  0.00000000  0.64490000  0.96795000  1.0 -0.0103029745
C  C74  1  0.00000000  0.62380000  0.92969000  1.0 -0.3002321679
C  C75  1  0.00000000  0.55630000  0.91754000  1.0 -0.0250281687
C  C76  1  0.00000000  0.53380000  0.87734000  1.0 -0.1574486835
C  C77  1  0.00000000  0.67860000  0.89899000  1.0 0.1121658519
C  C78  1  0.00000000  0.78480000  0.84570000  1.0 0.0371515359
C  C79  1  0.00000000  0.84250000  0.81840000  1.0 0.2301956345
C  C80  1  0.00000000  0.71510000  0.98064000  1.0 -0.1574486835
C  C81  1  0.50000000  0.64490000  0.53205000  1.0 -0.0103029745
C  C82  1  0.50000000  0.62380000  0.57031000  1.0 -0.3002321679
C  C83  1  0.50000000  0.55630000  0.58246000  1.0 -0.0237713974
C  C84  1  0.50000000  0.53380000  0.62266000  1.0 -0.1574486835
C  C85  1  0.50000000  0.67860000  0.60101000  1.0 0.1121658519
C  C86  1  0.50000000  0.78480000  0.65430000  1.0 0.0371515359
C  C87  1  0.50000000  0.84250000  0.68160000  1.0 0.2301956345
C  C88  1  0.50000000  0.71510000  0.51936000  1.0 -0.1574486835
C  C89  1  0.00000000  0.64490000  0.03205000  1.0 -0.0103029745
C  C90  1  0.00000000  0.62380000  0.07031000  1.0 -0.3002321679
C  C91  1  0.00000000  0.55630000  0.08246000  1.0 -0.0237713974
C  C92  1  0.00000000  0.53380000  0.12266000  1.0 -0.1574486835
C  C93  1  0.00000000  0.67860000  0.10101000  1.0 0.1121658519
C  C94  1  0.00000000  0.78480000  0.15430000  1.0 0.0371515359
C  C95  1  0.00000000  0.84250000  0.18160000  1.0 0.2301956345
C  C96  1  0.00000000  0.71510000  0.01936000  1.0 -0.1574486835
C  C97  1  0.89700000  0.54300000  0.52900000  0.5 -0.0468223165
C  C98  1  0.39700000  0.54300000  0.02900000  0.5 -0.0468223165
C  C99  1  0.10300000  0.54300000  0.47100000  0.5 -0.0468223165
C  C100  1  0.60300000  0.54300000  0.97100000  0.5 -0.0468223165
C  C101  1  0.10300000  0.45700000  0.52900000  0.5 -0.0468223165
C  C102  1  0.60300000  0.45700000  0.02900000  0.5 -0.0468223165
C  C103  1  0.89700000  0.45700000  0.47100000  0.5 -0.0468223165
C  C104  1  0.39700000  0.45700000  0.97100000  0.5 -0.0468223165
C  C105  1  0.10300000  0.45700000  0.47100000  0.5 -0.0468223165
C  C106  1  0.60300000  0.45700000  0.97100000  0.5 -0.0468223165
C  C107  1  0.89700000  0.45700000  0.52900000  0.5 -0.0468223165
C  C108  1  0.39700000  0.45700000  0.02900000  0.5 -0.0468223165
C  C109  1  0.89700000  0.54300000  0.47100000  0.5 -0.0468223165
C  C110  1  0.39700000  0.54300000  0.97100000  0.5 -0.0468223165
C  C111  1  0.10300000  0.54300000  0.52900000  0.5 -0.0468223165
C  C112  1  0.60300000  0.54300000  0.02900000  0.5 -0.0468223165
C  C113  1  0.10700000  0.50000000  0.54260000  0.5 -0.0771374792
C  C114  1  0.60700000  0.50000000  0.04260000  0.5 -0.0771374792
C  C115  1  0.89300000  0.50000000  0.45740000  0.5 -0.0771374792
C  C116  1  0.39300000  0.50000000  0.95740000  0.5 -0.0771374792
C  C117  1  0.89300000  0.50000000  0.54260000  0.5 -0.0771374792
C  C118  1  0.39300000  0.50000000  0.04260000  0.5 -0.0771374792
C  C119  1  0.10700000  0.50000000  0.45740000  0.5 -0.0771374792
C  C120  1  0.60700000  0.50000000  0.95740000  0.5 -0.0771374792
C  C121  1  0.89200000  0.57270000  0.50000000  0.5 -0.0928901189
C  C122  1  0.39200000  0.57270000  0.00000000  0.5 -0.0928901189
C  C123  1  0.10800000  0.57270000  0.50000000  0.5 -0.0928901189
C  C124  1  0.60800000  0.57270000  0.00000000  0.5 -0.0928901189
C  C125  1  0.10800000  0.42730000  0.50000000  0.5 -0.0928901189
C  C126  1  0.60800000  0.42730000  0.00000000  0.5 -0.0928901189
C  C127  1  0.89200000  0.42730000  0.50000000  0.5 -0.0928901189
C  C128  1  0.39200000  0.42730000  0.00000000  0.5 -0.0928901189
N  N1  1  0.34550000  0.12720000  0.30522000  1.0 -0.237241739
N  N2  1  0.40680000  0.07692000  0.28234000  1.0 0.0039488428
N  N3  1  0.84550000  0.12720000  0.80522000  1.0 -0.237241739
N  N4  1  0.90680000  0.07692000  0.78234000  1.0 0.0039488428
N  N5  1  0.65450000  0.12720000  0.69478000  1.0 -0.237241739
N  N6  1  0.59320000  0.07692000  0.71766000  1.0 0.0039488428
N  N7  1  0.15450000  0.12720000  0.19478000  1.0 -0.237241739
N  N8  1  0.09320000  0.07692000  0.21766000  1.0 0.0039488428
N  N9  1  0.65450000  0.87280000  0.30522000  1.0 -0.237241739
N  N10  1  0.59320000  0.92308000  0.28234000  1.0 0.0039488428
N  N11  1  0.15450000  0.87280000  0.80522000  1.0 -0.237241739
N  N12  1  0.09320000  0.92308000  0.78234000  1.0 0.0039488428
N  N13  1  0.34550000  0.87280000  0.69478000  1.0 -0.237241739
N  N14  1  0.40680000  0.92308000  0.71766000  1.0 0.0039488428
N  N15  1  0.84550000  0.87280000  0.19478000  1.0 -0.237241739
N  N16  1  0.90680000  0.92308000  0.21766000  1.0 0.0039488428
N  N17  1  0.65450000  0.87280000  0.69478000  1.0 -0.237241739
N  N18  1  0.59320000  0.92308000  0.71766000  1.0 0.0039488428
N  N19  1  0.15450000  0.87280000  0.19478000  1.0 -0.237241739
N  N20  1  0.09320000  0.92308000  0.21766000  1.0 0.0039488428
N  N21  1  0.34550000  0.87280000  0.30522000  1.0 -0.237241739
N  N22  1  0.40680000  0.92308000  0.28234000  1.0 0.0039488428
N  N23  1  0.84550000  0.87280000  0.80522000  1.0 -0.237241739
N  N24  1  0.90680000  0.92308000  0.78234000  1.0 0.0039488428
N  N25  1  0.34550000  0.12720000  0.69478000  1.0 -0.237241739
N  N26  1  0.40680000  0.07692000  0.71766000  1.0 0.0039488428
N  N27  1  0.84550000  0.12720000  0.19478000  1.0 -0.237241739
N  N28  1  0.90680000  0.07692000  0.21766000  1.0 0.0039488428
N  N29  1  0.65450000  0.12720000  0.30522000  1.0 -0.237241739
N  N30  1  0.59320000  0.07692000  0.28234000  1.0 0.0039488428
N  N31  1  0.15450000  0.12720000  0.80522000  1.0 -0.237241739
N  N32  1  0.09320000  0.07692000  0.78234000  1.0 0.0039488428
N  N33  1  0.50000000  0.39730000  0.50000000  1.0 -0.3500669669
N  N34  1  0.00000000  0.39730000  0.00000000  1.0 -0.3500669669
N  N35  1  0.50000000  0.60270000  0.50000000  1.0 -0.3500669669
N  N36  1  0.00000000  0.60270000  0.00000000  1.0 -0.3500669669
N  N37  1  0.50000000  0.50000000  0.44159000  1.0 -0.3500669669
N  N38  1  0.00000000  0.50000000  0.94159000  1.0 -0.3500669669
N  N39  1  0.50000000  0.50000000  0.55841000  1.0 -0.3500669669
N  N40  1  0.00000000  0.50000000  0.05841000  1.0 -0.3500669669
N  N41  1  0.81660000  0.50000000  0.50000000  1.0 -0.0975238592
N  N42  1  0.31660000  0.50000000  0.00000000  1.0 -0.0975238592
N  N43  1  0.18340000  0.50000000  0.50000000  1.0 -0.0975238592
N  N44  1  0.68340000  0.50000000  0.00000000  1.0 -0.0975238592
O  O1  1  0.00000000  0.00000000  0.28690000  1.0 -0.2294342849
O  O2  1  0.50000000  0.00000000  0.78690000  1.0 -0.2294342849
O  O3  1  0.00000000  0.00000000  0.71310000  1.0 -0.2294342849
O  O4  1  0.50000000  0.00000000  0.21310000  1.0 -0.2294342849
