# DDEC6 charges by PACMAN v1.1 (https://github.com/mtap-research/PACMAN-charge/)
data_c7dt03705h2_ASR_pacman
_symmetry_space_group_name_H-M   'P 1'
_cell_length_a   12.58080000
_cell_length_b   12.58080000
_cell_length_c   12.96250000
_cell_angle_alpha   90.00000000
_cell_angle_beta   90.00000000
_cell_angle_gamma   90.00000000
_symmetry_Int_Tables_number   1
_chemical_formula_structural   InH8C14(NO4)2
_chemical_formula_sum   'In4 H32 C56 N8 O32'
_cell_volume   2051.65950250
_cell_formula_units_Z   4
loop_
 _symmetry_equiv_pos_site_id
 _symmetry_equiv_pos_as_xyz
  1  'x, y, z'
loop_
 _atom_site_type_symbol
 _atom_site_label
 _atom_site_symmetry_multiplicity
 _atom_site_fract_x
 _atom_site_fract_y
 _atom_site_fract_z
 _atom_site_occupancy
 _atom_site_charge
In  In1  1  0.50000000  0.50000000  0.50000000  1.0 0.8603589663
In  In2  1  0.00000000  0.00000000  0.00000000  1.0 0.8603589663
In  In3  1  0.00000000  0.00000000  0.50000000  1.0 0.8603589663
In  In4  1  0.50000000  0.50000000  0.00000000  1.0 0.8603589663
H  H1  1  0.24510000  0.25490000  0.57010000  1.0 0.1973111367
H  H2  1  0.75490000  0.74510000  0.57010000  1.0 0.1973111367
H  H3  1  0.24510000  0.74510000  0.07010000  1.0 0.1973111367
H  H4  1  0.75490000  0.25490000  0.07010000  1.0 0.1973111367
H  H5  1  0.25490000  0.75490000  0.42990000  1.0 0.1973111367
H  H6  1  0.74510000  0.24510000  0.42990000  1.0 0.1973111367
H  H7  1  0.25490000  0.24510000  0.92990000  1.0 0.1973111367
H  H8  1  0.74510000  0.75490000  0.92990000  1.0 0.1973111367
H  H9  1  0.75200000  0.62910000  0.38450000  0.25 0.0424487794
H  H10  1  0.85930000  0.79940000  0.39590000  0.25 0.0593929792
H  H11  1  0.79990000  0.91470000  0.25010000  0.25 0.1554578075
H  H12  1  0.58480000  0.78770000  0.10090000  0.25 0.0500338152
H  H13  1  0.69310000  0.84140000  0.06230000  0.25 0.0500338152
H  H14  1  0.61360000  0.90650000  0.13500000  0.25 0.1059753558
H  H15  1  0.62910000  0.75200000  0.11550000  0.25 0.0424487794
H  H16  1  0.79940000  0.85930000  0.10410000  0.25 0.0593929792
H  H17  1  0.91470000  0.79990000  0.24990000  0.25 0.1554578075
H  H18  1  0.78770000  0.58480000  0.39910000  0.25 0.0500338152
H  H19  1  0.84140000  0.69310000  0.43770000  0.25 0.0500338152
H  H20  1  0.90650000  0.61360000  0.36500000  0.25 0.1059753558
H  H21  1  0.74800000  0.87090000  0.11550000  0.25 0.0424487794
H  H22  1  0.64070000  0.70060000  0.10410000  0.25 0.0593929792
H  H23  1  0.70010000  0.58530000  0.24990000  0.25 0.1554578075
H  H24  1  0.91520000  0.71230000  0.39910000  0.25 0.0500338152
H  H25  1  0.80690000  0.65860000  0.43770000  0.25 0.0500338152
H  H26  1  0.88640000  0.59350000  0.36500000  0.25 0.1059753558
H  H27  1  0.87090000  0.74800000  0.38450000  0.25 0.0424487794
H  H28  1  0.70060000  0.64070000  0.39590000  0.25 0.0593929792
H  H29  1  0.58530000  0.70010000  0.25010000  0.25 0.1554578075
H  H30  1  0.71230000  0.91520000  0.10090000  0.25 0.0500338152
H  H31  1  0.65860000  0.80690000  0.06230000  0.25 0.0500338152
H  H32  1  0.59350000  0.88640000  0.13500000  0.25 0.1059753558
H  H33  1  0.24800000  0.37090000  0.38450000  0.25 0.0424487794
H  H34  1  0.14070000  0.20060000  0.39590000  0.25 0.0593929792
H  H35  1  0.20010000  0.08530000  0.25010000  0.25 0.1554578075
H  H36  1  0.41520000  0.21230000  0.10090000  0.25 0.0500338152
H  H37  1  0.30690000  0.15860000  0.06230000  0.25 0.0500338152
H  H38  1  0.38640000  0.09350000  0.13500000  0.25 0.1059753558
H  H39  1  0.37090000  0.24800000  0.11550000  0.25 0.0424487794
H  H40  1  0.20060000  0.14070000  0.10410000  0.25 0.0593929792
H  H41  1  0.08530000  0.20010000  0.24990000  0.25 0.1554578075
H  H42  1  0.21230000  0.41520000  0.39910000  0.25 0.0500338152
H  H43  1  0.15860000  0.30690000  0.43770000  0.25 0.0500338152
H  H44  1  0.09350000  0.38640000  0.36500000  0.25 0.1059753558
H  H45  1  0.25200000  0.12910000  0.11550000  0.25 0.0424487794
H  H46  1  0.35930000  0.29940000  0.10410000  0.25 0.0593929792
H  H47  1  0.29990000  0.41470000  0.24990000  0.25 0.1554578075
H  H48  1  0.08480000  0.28770000  0.39910000  0.25 0.0500338152
H  H49  1  0.19310000  0.34140000  0.43770000  0.25 0.0500338152
H  H50  1  0.11360000  0.40650000  0.36500000  0.25 0.1059753558
H  H51  1  0.12910000  0.25200000  0.38450000  0.25 0.0424487794
H  H52  1  0.29940000  0.35930000  0.39590000  0.25 0.0593929792
H  H53  1  0.41470000  0.29990000  0.25010000  0.25 0.1554578075
H  H54  1  0.28770000  0.08480000  0.10090000  0.25 0.0500338152
H  H55  1  0.34140000  0.19310000  0.06230000  0.25 0.0500338152
H  H56  1  0.40650000  0.11360000  0.13500000  0.25 0.1059753558
H  H57  1  0.12910000  0.74800000  0.88450000  0.25 0.0424487794
H  H58  1  0.29940000  0.64070000  0.89590000  0.25 0.0593929792
H  H59  1  0.41470000  0.70010000  0.75010000  0.25 0.1554578075
H  H60  1  0.28770000  0.91520000  0.60090000  0.25 0.0500338152
H  H61  1  0.34140000  0.80690000  0.56230000  0.25 0.0500338152
H  H62  1  0.40650000  0.88640000  0.63500000  0.25 0.1059753558
H  H63  1  0.25200000  0.87090000  0.61550000  0.25 0.0424487794
H  H64  1  0.35930000  0.70060000  0.60410000  0.25 0.0593929792
H  H65  1  0.29990000  0.58530000  0.74990000  0.25 0.1554578075
H  H66  1  0.08480000  0.71230000  0.89910000  0.25 0.0500338152
H  H67  1  0.19310000  0.65860000  0.93770000  0.25 0.0500338152
H  H68  1  0.11360000  0.59350000  0.86500000  0.25 0.1059753558
H  H69  1  0.37090000  0.75200000  0.61550000  0.25 0.0424487794
H  H70  1  0.20060000  0.85930000  0.60410000  0.25 0.0593929792
H  H71  1  0.08530000  0.79990000  0.74990000  0.25 0.1554578075
H  H72  1  0.21230000  0.58480000  0.89910000  0.25 0.0500338152
H  H73  1  0.15860000  0.69310000  0.93770000  0.25 0.0500338152
H  H74  1  0.09350000  0.61360000  0.86500000  0.25 0.1059753558
H  H75  1  0.24800000  0.62910000  0.88450000  0.25 0.0424487794
H  H76  1  0.14070000  0.79940000  0.89590000  0.25 0.0593929792
H  H77  1  0.20010000  0.91470000  0.75010000  0.25 0.1554578075
H  H78  1  0.41520000  0.78770000  0.60090000  0.25 0.0500338152
H  H79  1  0.30690000  0.84140000  0.56230000  0.25 0.0500338152
H  H80  1  0.38640000  0.90650000  0.63500000  0.25 0.1059753558
H  H81  1  0.87090000  0.25200000  0.88450000  0.25 0.0424487794
H  H82  1  0.70060000  0.35930000  0.89590000  0.25 0.0593929792
H  H83  1  0.58530000  0.29990000  0.75010000  0.25 0.1554578075
H  H84  1  0.71230000  0.08480000  0.60090000  0.25 0.0500338152
H  H85  1  0.65860000  0.19310000  0.56230000  0.25 0.0500338152
H  H86  1  0.59350000  0.11360000  0.63500000  0.25 0.1059753558
H  H87  1  0.74800000  0.12910000  0.61550000  0.25 0.0424487794
H  H88  1  0.64070000  0.29940000  0.60410000  0.25 0.0593929792
H  H89  1  0.70010000  0.41470000  0.74990000  0.25 0.1554578075
H  H90  1  0.91520000  0.28770000  0.89910000  0.25 0.0500338152
H  H91  1  0.80690000  0.34140000  0.93770000  0.25 0.0500338152
H  H92  1  0.88640000  0.40650000  0.86500000  0.25 0.1059753558
H  H93  1  0.62910000  0.24800000  0.61550000  0.25 0.0424487794
H  H94  1  0.79940000  0.14070000  0.60410000  0.25 0.0593929792
H  H95  1  0.91470000  0.20010000  0.74990000  0.25 0.1554578075
H  H96  1  0.78770000  0.41520000  0.89910000  0.25 0.0500338152
H  H97  1  0.84140000  0.30690000  0.93770000  0.25 0.0500338152
H  H98  1  0.90650000  0.38640000  0.86500000  0.25 0.1059753558
H  H99  1  0.75200000  0.37090000  0.88450000  0.25 0.0424487794
H  H100  1  0.85930000  0.20060000  0.89590000  0.25 0.0593929792
H  H101  1  0.79990000  0.08530000  0.75010000  0.25 0.1554578075
H  H102  1  0.58480000  0.21230000  0.60090000  0.25 0.0500338152
H  H103  1  0.69310000  0.15860000  0.56230000  0.25 0.0500338152
H  H104  1  0.61360000  0.09350000  0.63500000  0.25 0.1059753558
C  C1  1  0.31530000  0.31960000  0.69580000  1.0 0.0092184127
C  C2  1  0.39150000  0.38580000  0.63450000  1.0 0.3745388082
C  C3  1  0.68470000  0.68040000  0.69580000  1.0 0.0092184127
C  C4  1  0.60850000  0.61420000  0.63450000  1.0 0.3745388082
C  C5  1  0.18040000  0.81530000  0.19580000  1.0 0.0092184127
C  C6  1  0.11420000  0.89150000  0.13450000  1.0 0.3745388082
C  C7  1  0.81960000  0.18470000  0.19580000  1.0 0.0092184127
C  C8  1  0.88580000  0.10850000  0.13450000  1.0 0.3755298981
C  C9  1  0.18470000  0.81960000  0.30420000  1.0 0.0092184127
C  C10  1  0.10850000  0.88580000  0.36550000  1.0 0.3745388082
C  C11  1  0.81530000  0.18040000  0.30420000  1.0 0.0092184127
C  C12  1  0.89150000  0.11420000  0.36550000  1.0 0.3755298981
C  C13  1  0.31960000  0.31530000  0.80420000  1.0 0.0092184127
C  C14  1  0.38580000  0.39150000  0.86550000  1.0 0.3745388082
C  C15  1  0.68040000  0.68470000  0.80420000  1.0 0.0092184127
C  C16  1  0.61420000  0.60850000  0.86550000  1.0 0.3745388082
C  C17  1  0.18470000  0.18040000  0.80420000  1.0 0.0092184127
C  C18  1  0.10850000  0.11420000  0.86550000  1.0 0.3745388082
C  C19  1  0.81530000  0.81960000  0.80420000  1.0 0.0092184127
C  C20  1  0.89150000  0.88580000  0.86550000  1.0 0.3745388082
C  C21  1  0.31960000  0.68470000  0.30420000  1.0 0.0092184127
C  C22  1  0.38580000  0.60850000  0.36550000  1.0 0.3745388082
C  C23  1  0.68040000  0.31530000  0.30420000  1.0 0.0092184127
C  C24  1  0.61420000  0.39150000  0.36550000  1.0 0.3745388082
C  C25  1  0.31530000  0.68040000  0.19580000  1.0 0.0092184127
C  C26  1  0.39150000  0.61420000  0.13450000  1.0 0.3745388082
C  C27  1  0.68470000  0.31960000  0.19580000  1.0 0.0092184127
C  C28  1  0.60850000  0.38580000  0.13450000  1.0 0.3755298981
C  C29  1  0.18040000  0.18470000  0.69580000  1.0 0.0092184127
C  C30  1  0.11420000  0.10850000  0.63450000  1.0 0.3745388082
C  C31  1  0.81960000  0.81530000  0.69580000  1.0 0.0092184127
C  C32  1  0.88580000  0.89150000  0.63450000  1.0 0.3745388082
C  C33  1  0.24670000  0.25330000  0.64330000  1.0 -0.0816946274
C  C34  1  0.75330000  0.74670000  0.64330000  1.0 -0.0816946274
C  C35  1  0.24670000  0.74670000  0.14330000  1.0 -0.0816946274
C  C36  1  0.75330000  0.25330000  0.14330000  1.0 -0.0816946274
C  C37  1  0.25330000  0.75330000  0.35670000  1.0 -0.0816946274
C  C38  1  0.74670000  0.24670000  0.35670000  1.0 -0.0816946274
C  C39  1  0.25330000  0.24670000  0.85670000  1.0 -0.0816946274
C  C40  1  0.74670000  0.75330000  0.85670000  1.0 -0.0816946274
C  C41  1  0.69480000  0.79710000  0.20610000  0.25 0.0500338152
C  C42  1  0.74700000  0.68800000  0.33910000  0.25 0.0011224315
C  C43  1  0.80700000  0.78400000  0.34550000  0.25 -0.0335044909
C  C44  1  0.64300000  0.83600000  0.11980000  0.25 -0.186076943
C  C45  1  0.79710000  0.69480000  0.29390000  0.25 0.0500338152
C  C46  1  0.68800000  0.74700000  0.16090000  0.25 0.0011224315
C  C47  1  0.78400000  0.80700000  0.15450000  0.25 -0.0335044909
C  C48  1  0.83600000  0.64300000  0.38020000  0.25 -0.186076943
C  C49  1  0.80520000  0.70290000  0.29390000  0.25 0.0500338152
C  C50  1  0.75300000  0.81200000  0.16090000  0.25 0.0011224315
C  C51  1  0.69300000  0.71600000  0.15450000  0.25 -0.0335044909
C  C52  1  0.85700000  0.66400000  0.38020000  0.25 -0.186076943
C  C53  1  0.70290000  0.80520000  0.20610000  0.25 0.0500338152
C  C54  1  0.81200000  0.75300000  0.33910000  0.25 0.0011224315
C  C55  1  0.71600000  0.69300000  0.34550000  0.25 -0.0335044909
C  C56  1  0.66400000  0.85700000  0.11980000  0.25 -0.186076943
C  C57  1  0.30520000  0.20290000  0.20610000  0.25 0.0500338152
C  C58  1  0.25300000  0.31200000  0.33910000  0.25 0.0011224315
C  C59  1  0.19300000  0.21600000  0.34550000  0.25 -0.0335044909
C  C60  1  0.35700000  0.16400000  0.11980000  0.25 -0.186076943
C  C61  1  0.20290000  0.30520000  0.29390000  0.25 0.0500338152
C  C62  1  0.31200000  0.25300000  0.16090000  0.25 0.0011224315
C  C63  1  0.21600000  0.19300000  0.15450000  0.25 -0.0335044909
C  C64  1  0.16400000  0.35700000  0.38020000  0.25 -0.186076943
C  C65  1  0.19480000  0.29710000  0.29390000  0.25 0.0500338152
C  C66  1  0.24700000  0.18800000  0.16090000  0.25 0.0011224315
C  C67  1  0.30700000  0.28400000  0.15450000  0.25 -0.0335044909
C  C68  1  0.14300000  0.33600000  0.38020000  0.25 -0.186076943
C  C69  1  0.29710000  0.19480000  0.20610000  0.25 0.0500338152
C  C70  1  0.18800000  0.24700000  0.33910000  0.25 0.0011224315
C  C71  1  0.28400000  0.30700000  0.34550000  0.25 -0.0335044909
C  C72  1  0.33600000  0.14300000  0.11980000  0.25 -0.186076943
C  C73  1  0.29710000  0.80520000  0.70610000  0.25 0.0500338152
C  C74  1  0.18800000  0.75300000  0.83910000  0.25 0.0011224315
C  C75  1  0.28400000  0.69300000  0.84550000  0.25 -0.0335044909
C  C76  1  0.33600000  0.85700000  0.61980000  0.25 -0.186076943
C  C77  1  0.19480000  0.70290000  0.79390000  0.25 0.0500338152
C  C78  1  0.24700000  0.81200000  0.66090000  0.25 0.0011224315
C  C79  1  0.30700000  0.71600000  0.65450000  0.25 -0.0335044909
C  C80  1  0.14300000  0.66400000  0.88020000  0.25 -0.186076943
C  C81  1  0.20290000  0.69480000  0.79390000  0.25 0.0500338152
C  C82  1  0.31200000  0.74700000  0.66090000  0.25 0.0011224315
C  C83  1  0.21600000  0.80700000  0.65450000  0.25 -0.0335044909
C  C84  1  0.16400000  0.64300000  0.88020000  0.25 -0.186076943
C  C85  1  0.30520000  0.79710000  0.70610000  0.25 0.0500338152
C  C86  1  0.25300000  0.68800000  0.83910000  0.25 0.0011224315
C  C87  1  0.19300000  0.78400000  0.84550000  0.25 -0.0335044909
C  C88  1  0.35700000  0.83600000  0.61980000  0.25 -0.186076943
C  C89  1  0.70290000  0.19480000  0.70610000  0.25 0.0500338152
C  C90  1  0.81200000  0.24700000  0.83910000  0.25 0.0011224315
C  C91  1  0.71600000  0.30700000  0.84550000  0.25 -0.0335044909
C  C92  1  0.66400000  0.14300000  0.61980000  0.25 -0.186076943
C  C93  1  0.80520000  0.29710000  0.79390000  0.25 0.0500338152
C  C94  1  0.75300000  0.18800000  0.66090000  0.25 0.0011224315
C  C95  1  0.69300000  0.28400000  0.65450000  0.25 -0.0335044909
C  C96  1  0.85700000  0.33600000  0.88020000  0.25 -0.186076943
C  C97  1  0.79710000  0.30520000  0.79390000  0.25 0.0500338152
C  C98  1  0.68800000  0.25300000  0.66090000  0.25 0.0011224315
C  C99  1  0.78400000  0.19300000  0.65450000  0.25 -0.0335044909
C  C100  1  0.83600000  0.35700000  0.88020000  0.25 -0.186076943
C  C101  1  0.69480000  0.20290000  0.70610000  0.25 0.0500338152
C  C102  1  0.74700000  0.31200000  0.83910000  0.25 0.0011224315
C  C103  1  0.80700000  0.21600000  0.84550000  0.25 -0.0335044909
C  C104  1  0.64300000  0.16400000  0.61980000  0.25 -0.186076943
N  N1  1  0.67750000  0.69660000  0.25300000  0.25 -0.0816946274
N  N2  1  0.77500000  0.85090000  0.26330000  0.25 -0.1310226211
N  N3  1  0.69660000  0.67750000  0.24700000  0.25 -0.0816946274
N  N4  1  0.85090000  0.77500000  0.23670000  0.25 -0.1310226211
N  N5  1  0.82250000  0.80340000  0.24700000  0.25 -0.0816946274
N  N6  1  0.72500000  0.64910000  0.23670000  0.25 -0.1310226211
N  N7  1  0.80340000  0.82250000  0.25300000  0.25 -0.0816946274
N  N8  1  0.64910000  0.72500000  0.26330000  0.25 -0.1310226211
N  N9  1  0.32250000  0.30340000  0.25300000  0.25 -0.0816946274
N  N10  1  0.22500000  0.14910000  0.26330000  0.25 -0.1310226211
N  N11  1  0.30340000  0.32250000  0.24700000  0.25 -0.0816946274
N  N12  1  0.14910000  0.22500000  0.23670000  0.25 -0.1310226211
N  N13  1  0.17750000  0.19660000  0.24700000  0.25 -0.0816946274
N  N14  1  0.27500000  0.35090000  0.23670000  0.25 -0.1310226211
N  N15  1  0.19660000  0.17750000  0.25300000  0.25 -0.0816946274
N  N16  1  0.35090000  0.27500000  0.26330000  0.25 -0.1310226211
N  N17  1  0.19660000  0.82250000  0.75300000  0.25 -0.0816946274
N  N18  1  0.35090000  0.72500000  0.76330000  0.25 -0.1310226211
N  N19  1  0.17750000  0.80340000  0.74700000  0.25 -0.0816946274
N  N20  1  0.27500000  0.64910000  0.73670000  0.25 -0.1310226211
N  N21  1  0.30340000  0.67750000  0.74700000  0.25 -0.0816946274
N  N22  1  0.14910000  0.77500000  0.73670000  0.25 -0.1310226211
N  N23  1  0.32250000  0.69660000  0.75300000  0.25 -0.0816946274
N  N24  1  0.22500000  0.85090000  0.76330000  0.25 -0.1310226211
N  N25  1  0.80340000  0.17750000  0.75300000  0.25 -0.0816946274
N  N26  1  0.64910000  0.27500000  0.76330000  0.25 -0.1310226211
N  N27  1  0.82250000  0.19660000  0.74700000  0.25 -0.0816946274
N  N28  1  0.72500000  0.35090000  0.73670000  0.25 -0.1310226211
N  N29  1  0.69660000  0.32250000  0.74700000  0.25 -0.0816946274
N  N30  1  0.85090000  0.22500000  0.73670000  0.25 -0.1310226211
N  N31  1  0.67750000  0.30340000  0.75300000  0.25 -0.0816946274
N  N32  1  0.77500000  0.14910000  0.76330000  0.25 -0.1310226211
O  O1  1  0.48790000  0.38530000  0.65280000  1.0 -0.3309360465
O  O2  1  0.35290000  0.43900000  0.56020000  1.0 -0.4081051165
O  O3  1  0.51210000  0.61470000  0.65280000  1.0 -0.3309360465
O  O4  1  0.64710000  0.56100000  0.56020000  1.0 -0.4081051165
O  O5  1  0.11470000  0.98790000  0.15280000  1.0 -0.3309360465
O  O6  1  0.06100000  0.85290000  0.06020000  1.0 -0.4081051165
O  O7  1  0.88530000  0.01210000  0.15280000  1.0 -0.3309360465
O  O8  1  0.93900000  0.14710000  0.06020000  1.0 -0.4081051165
O  O9  1  0.01210000  0.88530000  0.34720000  1.0 -0.3309360465
O  O10  1  0.14710000  0.93900000  0.43980000  1.0 -0.4081051165
O  O11  1  0.98790000  0.11470000  0.34720000  1.0 -0.3309360465
O  O12  1  0.85290000  0.06100000  0.43980000  1.0 -0.4081051165
O  O13  1  0.38530000  0.48790000  0.84720000  1.0 -0.3309360465
O  O14  1  0.43900000  0.35290000  0.93980000  1.0 -0.4081051165
O  O15  1  0.61470000  0.51210000  0.84720000  1.0 -0.3309360465
O  O16  1  0.56100000  0.64710000  0.93980000  1.0 -0.4081051165
O  O17  1  0.01210000  0.11470000  0.84720000  1.0 -0.3309360465
O  O18  1  0.14710000  0.06100000  0.93980000  1.0 -0.4081051165
O  O19  1  0.98790000  0.88530000  0.84720000  1.0 -0.3309360465
O  O20  1  0.85290000  0.93900000  0.93980000  1.0 -0.4081051165
O  O21  1  0.38530000  0.51210000  0.34720000  1.0 -0.3309360465
O  O22  1  0.43900000  0.64710000  0.43980000  1.0 -0.4081051165
O  O23  1  0.61470000  0.48790000  0.34720000  1.0 -0.3309360465
O  O24  1  0.56100000  0.35290000  0.43980000  1.0 -0.4081051165
O  O25  1  0.48790000  0.61470000  0.15280000  1.0 -0.3309360465
O  O26  1  0.35290000  0.56100000  0.06020000  1.0 -0.4081051165
O  O27  1  0.51210000  0.38530000  0.15280000  1.0 -0.3309360465
O  O28  1  0.64710000  0.43900000  0.06020000  1.0 -0.4081051165
O  O29  1  0.11470000  0.01210000  0.65280000  1.0 -0.3309360465
O  O30  1  0.06100000  0.14710000  0.56020000  1.0 -0.4081051165
O  O31  1  0.88530000  0.98790000  0.65280000  1.0 -0.3309360465
O  O32  1  0.93900000  0.85290000  0.56020000  1.0 -0.4081051165
