# DDEC6 charges by PACMAN v1.1 (https://github.com/mtap-research/PACMAN-charge/)
data_2016[Zn][dia]3[ASR]1
_chemical_formula_sum              "Zn8 H96 C144 N48 O32"
_cell_length_a       15.8773
_cell_length_b       17.342
_cell_length_c       18.855
_cell_angle_alpha    90
_cell_angle_beta     90
_cell_angle_gamma    90

_symmetry_space_group_name_H-M    "P 1"
_symmetry_Int_Tables_number       1

loop_
  _symmetry_equiv_pos_as_xyz
  'x, y, z'

loop_
  _atom_site_type_symbol
  _atom_site_label
  _atom_site_symmetry_multiplicity
  _atom_site_fract_x
  _atom_site_fract_y
  _atom_site_fract_z
  _atom_site_occupancy
  _atom_site_charge
Zn  Zn1       1.0  0.01105  0.74225  0.53270  1.0000 0.748488292
Zn  Zn2       1.0  0.48895  0.24225  0.46730  1.0000 0.748488292
Zn  Zn3       1.0  0.01105  0.24225  0.96730  1.0000 0.748488292
Zn  Zn4       1.0  0.48895  0.74225  0.03270  1.0000 0.748488292
Zn  Zn5       1.0  0.98895  0.75775  0.03270  1.0000 0.748488292
Zn  Zn6       1.0  0.51105  0.25775  0.96730  1.0000 0.748488292
Zn  Zn7       1.0  0.98895  0.25775  0.46730  1.0000 0.748488292
Zn  Zn8       1.0  0.51105  0.75775  0.53270  1.0000 0.748488292
H   H1        1.0  0.85630  0.85010  0.50460  1.0000 0.1312064178
H   H2        1.0  0.64370  0.35010  0.49540  1.0000 0.1312064178
H   H3        1.0  0.85630  0.35010  0.99540  1.0000 0.1312064178
H   H4        1.0  0.64370  0.85010  0.00460  1.0000 0.1312064178
H   H5        1.0  0.60500  0.98240  0.52940  1.0000 0.1397572637
H   H6        1.0  0.89500  0.48240  0.47060  1.0000 0.1397572637
H   H7        1.0  0.60500  0.48240  0.97060  1.0000 0.1397572637
H   H8        1.0  0.89500  0.98240  0.02940  1.0000 0.1397572637
H   H9        1.0  0.87110  0.09380  0.52970  1.0000 0.119924981
H   H10       1.0  0.62890  0.59380  0.47030  1.0000 0.119924981
H   H11       1.0  0.87110  0.59380  0.97030  1.0000 0.119924981
H   H12       1.0  0.62890  0.09380  0.02970  1.0000 0.119924981
H   H13       1.0  0.15950  0.70600  0.41810  1.0000 0.1397572637
H   H14       1.0  0.34050  0.20600  0.58190  1.0000 0.1397572637
H   H15       1.0  0.15950  0.20600  0.08190  1.0000 0.1397572637
H   H16       1.0  0.34050  0.70600  0.91810  1.0000 0.1397572637
H   H17       1.0  0.75340  0.16800  0.50490  1.0000 0.113054186
H   H18       1.0  0.74660  0.66800  0.49510  1.0000 0.113054186
H   H19       1.0  0.75340  0.66800  0.99510  1.0000 0.113054186
H   H20       1.0  0.74660  0.16800  0.00490  1.0000 0.113054186
H   H21       1.0  0.03730  0.84290  0.28740  1.0000 0.1312064178
H   H22       1.0  0.46270  0.34290  0.71260  1.0000 0.1312064178
H   H23       1.0  0.03730  0.34290  0.21260  1.0000 0.1312064178
H   H24       1.0  0.46270  0.84290  0.78740  1.0000 0.1312064178
H   H25       1.0  0.22050  0.74160  0.11360  1.0000 0.119924981
H   H26       1.0  0.27950  0.24160  0.88640  1.0000 0.119924981
H   H27       1.0  0.22050  0.24160  0.38640  1.0000 0.119924981
H   H28       1.0  0.27950  0.74160  0.61360  1.0000 0.119924981
H   H29       1.0  0.72170  0.90930  0.55930  1.0000 0.1312064178
H   H30       1.0  0.77830  0.40930  0.44070  1.0000 0.1312064178
H   H31       1.0  0.72170  0.40930  0.94070  1.0000 0.1312064178
H   H32       1.0  0.77830  0.90930  0.05930  1.0000 0.1312064178
H   H33       1.0  0.28440  0.76350  0.35320  1.0000 0.1312064178
H   H34       1.0  0.21560  0.26350  0.64680  1.0000 0.1312064178
H   H35       1.0  0.28440  0.26350  0.14680  1.0000 0.1312064178
H   H36       1.0  0.21560  0.76350  0.85320  1.0000 0.1312064178
H   H37       1.0  0.11200  0.75800  0.19630  1.0000 0.1397572637
H   H38       1.0  0.38800  0.25800  0.80370  1.0000 0.1397572637
H   H39       1.0  0.11200  0.25800  0.30370  1.0000 0.1397572637
H   H40       1.0  0.38800  0.75800  0.69630  1.0000 0.1397572637
H   H41       1.0  0.39050  0.74380  0.27000  1.0000 0.113054186
H   H42       1.0  0.10950  0.24380  0.73000  1.0000 0.113054186
H   H43       1.0  0.39050  0.24380  0.23000  1.0000 0.113054186
H   H44       1.0  0.10950  0.74380  0.77000  1.0000 0.113054186
H   H45       1.0  0.95680  0.00880  0.62410  1.0000 0.119924981
H   H46       1.0  0.54320  0.50880  0.37590  1.0000 0.119924981
H   H47       1.0  0.95680  0.50880  0.87590  1.0000 0.119924981
H   H48       1.0  0.54320  0.00880  0.12410  1.0000 0.119924981
H   H49       1.0  0.14370  0.64990  0.00460  1.0000 0.1312064178
H   H50       1.0  0.35630  0.14990  0.99540  1.0000 0.1312064178
H   H51       1.0  0.14370  0.14990  0.49540  1.0000 0.1312064178
H   H52       1.0  0.35630  0.64990  0.50460  1.0000 0.1312064178
H   H53       1.0  0.39500  0.51760  0.02940  1.0000 0.1397572637
H   H54       1.0  0.10500  0.01760  0.97060  1.0000 0.1397572637
H   H55       1.0  0.39500  0.01760  0.47060  1.0000 0.1397572637
H   H56       1.0  0.10500  0.51760  0.52940  1.0000 0.1397572637
H   H57       1.0  0.12890  0.40620  0.02970  1.0000 0.119924981
H   H58       1.0  0.37110  0.90620  0.97030  1.0000 0.119924981
H   H59       1.0  0.12890  0.90620  0.47030  1.0000 0.119924981
H   H60       1.0  0.37110  0.40620  0.52970  1.0000 0.119924981
H   H61       1.0  0.84050  0.79400  0.91810  1.0000 0.1397572637
H   H62       1.0  0.65950  0.29400  0.08190  1.0000 0.1397572637
H   H63       1.0  0.84050  0.29400  0.58190  1.0000 0.1397572637
H   H64       1.0  0.65950  0.79400  0.41810  1.0000 0.1397572637
H   H65       1.0  0.24660  0.33200  0.00490  1.0000 0.113054186
H   H66       1.0  0.25340  0.83200  0.99510  1.0000 0.113054186
H   H67       1.0  0.24660  0.83200  0.49510  1.0000 0.113054186
H   H68       1.0  0.25340  0.33200  0.50490  1.0000 0.113054186
H   H69       1.0  0.96270  0.65710  0.78740  1.0000 0.1312064178
H   H70       1.0  0.53730  0.15710  0.21260  1.0000 0.1312064178
H   H71       1.0  0.96270  0.15710  0.71260  1.0000 0.1312064178
H   H72       1.0  0.53730  0.65710  0.28740  1.0000 0.1312064178
H   H73       1.0  0.77950  0.75840  0.61360  1.0000 0.119924981
H   H74       1.0  0.72050  0.25840  0.38640  1.0000 0.119924981
H   H75       1.0  0.77950  0.25840  0.88640  1.0000 0.119924981
H   H76       1.0  0.72050  0.75840  0.11360  1.0000 0.119924981
H   H77       1.0  0.27830  0.59070  0.05930  1.0000 0.1312064178
H   H78       1.0  0.22170  0.09070  0.94070  1.0000 0.1312064178
H   H79       1.0  0.27830  0.09070  0.44070  1.0000 0.1312064178
H   H80       1.0  0.22170  0.59070  0.55930  1.0000 0.1312064178
H   H81       1.0  0.71560  0.73650  0.85320  1.0000 0.1312064178
H   H82       1.0  0.78440  0.23650  0.14680  1.0000 0.1312064178
H   H83       1.0  0.71560  0.23650  0.64680  1.0000 0.1312064178
H   H84       1.0  0.78440  0.73650  0.35320  1.0000 0.1312064178
H   H85       1.0  0.88800  0.74200  0.69630  1.0000 0.1397572637
H   H86       1.0  0.61200  0.24200  0.30370  1.0000 0.1397572637
H   H87       1.0  0.88800  0.24200  0.80370  1.0000 0.1397572637
H   H88       1.0  0.61200  0.74200  0.19630  1.0000 0.1397572637
H   H89       1.0  0.60950  0.75620  0.77000  1.0000 0.113054186
H   H90       1.0  0.89050  0.25620  0.23000  1.0000 0.113054186
H   H91       1.0  0.60950  0.25620  0.73000  1.0000 0.113054186
H   H92       1.0  0.89050  0.75620  0.27000  1.0000 0.113054186
H   H93       1.0  0.04320  0.49120  0.12410  1.0000 0.119924981
H   H94       1.0  0.45680  0.99120  0.87590  1.0000 0.119924981
H   H95       1.0  0.04320  0.99120  0.37590  1.0000 0.119924981
H   H96       1.0  0.45680  0.49120  0.62410  1.0000 0.119924981
C   C1        1.0  0.89340  0.87716  0.53356  1.0000 0.0999160939
C   C2        1.0  0.60660  0.37716  0.46644  1.0000 0.0999160939
C   C3        1.0  0.89340  0.37716  0.96644  1.0000 0.0999160939
C   C4        1.0  0.60660  0.87716  0.03356  1.0000 0.0999160939
C   C5        1.0  0.65820  0.00490  0.53028  1.0000 -0.0649321602
C   C6        1.0  0.84180  0.50490  0.46972  1.0000 -0.0655279906
C   C7        1.0  0.65820  0.50490  0.96972  1.0000 -0.0655279906
C   C8        1.0  0.84180  0.00490  0.03028  1.0000 -0.0655279906
C   C9        1.0  0.81760  0.07193  0.53030  1.0000 -0.198427872
C   C10       1.0  0.68240  0.57193  0.46970  1.0000 -0.198427872
C   C11       1.0  0.81760  0.57193  0.96970  1.0000 -0.198427872
C   C12       1.0  0.68240  0.07193  0.03030  1.0000 -0.198427872
C   C13       1.0  0.11940  0.73879  0.39865  1.0000 0.0999160939
C   C14       1.0  0.38060  0.23879  0.60135  1.0000 0.0999160939
C   C15       1.0  0.11940  0.23879  0.10135  1.0000 0.0999160939
C   C16       1.0  0.38060  0.73879  0.89865  1.0000 0.0999160939
C   C17       1.0  0.80674  0.99475  0.54633  1.0000 0.1475361361
C   C18       1.0  0.69326  0.49475  0.45367  1.0000 0.1475361361
C   C19       1.0  0.80674  0.49475  0.95367  1.0000 0.1475361361
C   C20       1.0  0.69326  0.99475  0.04633  1.0000 0.1475361361
C   C21       1.0  0.59118  0.13066  0.49669  1.0000 0.5455226822
C   C22       1.0  0.90882  0.63066  0.50331  1.0000 0.5455226822
C   C23       1.0  0.59118  0.63066  0.00331  1.0000 0.5455226822
C   C24       1.0  0.90882  0.13066  0.99669  1.0000 0.5455226822
C   C25       1.0  0.74730  0.11584  0.51490  1.0000 -0.0907198192
C   C26       1.0  0.75270  0.61584  0.48510  1.0000 -0.0907198192
C   C27       1.0  0.74730  0.61584  0.98510  1.0000 -0.0907198192
C   C28       1.0  0.75270  0.11584  0.01490  1.0000 -0.0907198192
C   C29       1.0  0.31540  0.73990  0.18446  1.0000 -0.0166278028
C   C30       1.0  0.18460  0.23990  0.81554  1.0000 -0.0166278028
C   C31       1.0  0.31540  0.23990  0.31554  1.0000 -0.0166278028
C   C32       1.0  0.18460  0.73990  0.68446  1.0000 -0.0166278028
C   C33       1.0  0.66755  0.08313  0.51443  1.0000 -0.01302413
C   C34       1.0  0.83245  0.58313  0.48557  1.0000 -0.01302413
C   C35       1.0  0.66755  0.58313  0.98557  1.0000 -0.01302413
C   C36       1.0  0.83245  0.08313  0.01443  1.0000 -0.01302413
C   C37       1.0  0.05180  0.81410  0.32721  1.0000 0.0811576912
C   C38       1.0  0.44820  0.31410  0.67279  1.0000 0.0811576912
C   C39       1.0  0.05180  0.31410  0.17279  1.0000 0.0811576912
C   C40       1.0  0.44820  0.81410  0.82721  1.0000 0.0811576912
C   C41       1.0  0.23290  0.74490  0.16170  1.0000 -0.0800994077
C   C42       1.0  0.26710  0.24490  0.83830  1.0000 -0.0800994077
C   C43       1.0  0.23290  0.24490  0.33830  1.0000 -0.0800994077
C   C44       1.0  0.26710  0.74490  0.66170  1.0000 -0.0800994077
C   C45       1.0  0.72775  0.96098  0.54730  1.0000 -0.189139456
C   C46       1.0  0.77225  0.46098  0.45270  1.0000 -0.189139456
C   C47       1.0  0.72775  0.46098  0.95270  1.0000 -0.189139456
C   C48       1.0  0.77225  0.96098  0.04730  1.0000 -0.189139456
C   C49       1.0  0.18820  0.76067  0.28182  1.0000 0.1586280818
C   C50       1.0  0.31180  0.26067  0.71818  1.0000 0.1586280818
C   C51       1.0  0.18820  0.26067  0.21818  1.0000 0.1586280818
C   C52       1.0  0.31180  0.76067  0.78182  1.0000 0.1586280818
C   C53       1.0  0.27150  0.75790  0.30530  1.0000 -0.198427872
C   C54       1.0  0.22850  0.25790  0.69470  1.0000 -0.198427872
C   C55       1.0  0.27150  0.25790  0.19470  1.0000 -0.198427872
C   C56       1.0  0.22850  0.75790  0.80530  1.0000 -0.198427872
C   C57       1.0  0.16780  0.75510  0.21105  1.0000 -0.189139456
C   C58       1.0  0.33220  0.25510  0.78895  1.0000 -0.1805476514
C   C59       1.0  0.16780  0.25510  0.28895  1.0000 -0.189139456
C   C60       1.0  0.33220  0.75510  0.71105  1.0000 -0.1805476514
C   C61       1.0  0.11340  0.73034  0.63210  1.0000 0.5443217083
C   C62       1.0  0.38660  0.23034  0.36790  1.0000 0.5443217083
C   C63       1.0  0.11340  0.23034  0.86790  1.0000 0.5443217083
C   C64       1.0  0.38660  0.73034  0.13210  1.0000 0.5443217083
C   C65       1.0  0.33460  0.74670  0.25530  1.0000 -0.0800994077
C   C66       1.0  0.16540  0.24670  0.74470  1.0000 -0.0800994077
C   C67       1.0  0.33460  0.24670  0.24470  1.0000 -0.0800994077
C   C68       1.0  0.16540  0.74670  0.75530  1.0000 -0.0800994077
C   C69       1.0  0.94840  0.96320  0.59910  1.0000 0.0811576912
C   C70       1.0  0.55160  0.46320  0.40090  1.0000 0.0811576912
C   C71       1.0  0.94840  0.46320  0.90090  1.0000 0.0811576912
C   C72       1.0  0.55160  0.96320  0.09910  1.0000 0.0811576912
C   C73       1.0  0.10660  0.62284  0.03356  1.0000 0.0999160939
C   C74       1.0  0.39340  0.12284  0.96644  1.0000 0.0999160939
C   C75       1.0  0.10660  0.12284  0.46644  1.0000 0.0999160939
C   C76       1.0  0.39340  0.62284  0.53356  1.0000 0.0999160939
C   C77       1.0  0.34180  0.49510  0.03028  1.0000 -0.0655279906
C   C78       1.0  0.15820  0.99510  0.96972  1.0000 -0.0655279906
C   C79       1.0  0.34180  0.99510  0.46972  1.0000 -0.0655279906
C   C80       1.0  0.15820  0.49510  0.53028  1.0000 -0.0655279906
C   C81       1.0  0.18240  0.42807  0.03030  1.0000 -0.198427872
C   C82       1.0  0.31760  0.92807  0.96970  1.0000 -0.198427872
C   C83       1.0  0.18240  0.92807  0.46970  1.0000 -0.198427872
C   C84       1.0  0.31760  0.42807  0.53030  1.0000 -0.198427872
C   C85       1.0  0.88060  0.76121  0.89865  1.0000 0.0999160939
C   C86       1.0  0.61940  0.26121  0.10135  1.0000 0.0999160939
C   C87       1.0  0.88060  0.26121  0.60135  1.0000 0.0999160939
C   C88       1.0  0.61940  0.76121  0.39865  1.0000 0.0999160939
C   C89       1.0  0.19326  0.50525  0.04633  1.0000 0.1475361361
C   C90       1.0  0.30674  0.00525  0.95367  1.0000 0.1475361361
C   C91       1.0  0.19326  0.00525  0.45367  1.0000 0.1475361361
C   C92       1.0  0.30674  0.50525  0.54633  1.0000 0.1475361361
C   C93       1.0  0.40882  0.36934  0.99669  1.0000 0.5455226822
C   C94       1.0  0.09118  0.86934  0.00331  1.0000 0.5443217083
C   C95       1.0  0.40882  0.86934  0.50331  1.0000 0.5455226822
C   C96       1.0  0.09118  0.36934  0.49669  1.0000 0.5455226822
C   C97       1.0  0.25270  0.38416  0.01490  1.0000 -0.0907198192
C   C98       1.0  0.24730  0.88416  0.98510  1.0000 -0.0907198192
C   C99       1.0  0.25270  0.88416  0.48510  1.0000 -0.0907198192
C   C100      1.0  0.24730  0.38416  0.51490  1.0000 -0.0907198192
C   C101      1.0  0.68460  0.76010  0.68446  1.0000 -0.0166278028
C   C102      1.0  0.81540  0.26010  0.31554  1.0000 -0.0166278028
C   C103      1.0  0.68460  0.26010  0.81554  1.0000 -0.0166278028
C   C104      1.0  0.81540  0.76010  0.18446  1.0000 -0.0166278028
C   C105      1.0  0.33245  0.41687  0.01443  1.0000 -0.01302413
C   C106      1.0  0.16755  0.91687  0.98557  1.0000 -0.01302413
C   C107      1.0  0.33245  0.91687  0.48557  1.0000 -0.01302413
C   C108      1.0  0.16755  0.41687  0.51443  1.0000 -0.01302413
C   C109      1.0  0.94820  0.68590  0.82721  1.0000 0.0811576912
C   C110      1.0  0.55180  0.18590  0.17279  1.0000 0.0811576912
C   C111      1.0  0.94820  0.18590  0.67279  1.0000 0.0811576912
C   C112      1.0  0.55180  0.68590  0.32721  1.0000 0.0811576912
C   C113      1.0  0.76710  0.75510  0.66170  1.0000 -0.0800994077
C   C114      1.0  0.73290  0.25510  0.33830  1.0000 -0.0800994077
C   C115      1.0  0.76710  0.25510  0.83830  1.0000 -0.0800994077
C   C116      1.0  0.73290  0.75510  0.16170  1.0000 -0.0800994077
C   C117      1.0  0.27225  0.53902  0.04730  1.0000 -0.189139456
C   C118      1.0  0.22775  0.03902  0.95270  1.0000 -0.189139456
C   C119      1.0  0.27225  0.03902  0.45270  1.0000 -0.189139456
C   C120      1.0  0.22775  0.53902  0.54730  1.0000 -0.189139456
C   C121      1.0  0.81180  0.73933  0.78182  1.0000 0.1586280818
C   C122      1.0  0.68820  0.23933  0.21818  1.0000 0.1586280818
C   C123      1.0  0.81180  0.23933  0.71818  1.0000 0.1586280818
C   C124      1.0  0.68820  0.73933  0.28182  1.0000 0.1586280818
C   C125      1.0  0.72850  0.74210  0.80530  1.0000 -0.198427872
C   C126      1.0  0.77150  0.24210  0.19470  1.0000 -0.198427872
C   C127      1.0  0.72850  0.24210  0.69470  1.0000 -0.198427872
C   C128      1.0  0.77150  0.74210  0.30530  1.0000 -0.198427872
C   C129      1.0  0.83220  0.74490  0.71105  1.0000 -0.189139456
C   C130      1.0  0.66780  0.24490  0.28895  1.0000 -0.189139456
C   C131      1.0  0.83220  0.24490  0.78895  1.0000 -0.189139456
C   C132      1.0  0.66780  0.74490  0.21105  1.0000 -0.1805476514
C   C133      1.0  0.88660  0.76966  0.13210  1.0000 0.5443217083
C   C134      1.0  0.61340  0.26966  0.86790  1.0000 0.5443217083
C   C135      1.0  0.88660  0.26966  0.36790  1.0000 0.5443217083
C   C136      1.0  0.61340  0.76966  0.63210  1.0000 0.5443217083
C   C137      1.0  0.66540  0.75330  0.75530  1.0000 -0.0800994077
C   C138      1.0  0.83460  0.25330  0.24470  1.0000 -0.0800994077
C   C139      1.0  0.66540  0.25330  0.74470  1.0000 -0.0800994077
C   C140      1.0  0.83460  0.75330  0.25530  1.0000 -0.0800994077
C   C141      1.0  0.05160  0.53680  0.09910  1.0000 0.0811576912
C   C142      1.0  0.44840  0.03680  0.90090  1.0000 0.0811576912
C   C143      1.0  0.05160  0.03680  0.40090  1.0000 0.0811576912
C   C144      1.0  0.44840  0.53680  0.59910  1.0000 0.0811576912
N   N1        1.0  0.12310  0.76991  0.33323  1.0000 -0.0166278028
N   N2        1.0  0.37690  0.26991  0.66677  1.0000 -0.0166278028
N   N3        1.0  0.12310  0.26991  0.16677  1.0000 -0.0166278028
N   N4        1.0  0.37690  0.76991  0.83323  1.0000 -0.0166278028
N   N5        1.0  0.05070  0.76185  0.43049  1.0000 -0.1805476514
N   N6        1.0  0.44930  0.26185  0.56951  1.0000 -0.1805476514
N   N7        1.0  0.05070  0.26185  0.06951  1.0000 -0.1805476514
N   N8        1.0  0.44930  0.76185  0.93049  1.0000 -0.1805476514
N   N9        1.0  0.96679  0.85167  0.55481  1.0000 -0.1655381596
N   N10       1.0  0.53321  0.35167  0.44519  1.0000 -0.1655381596
N   N11       1.0  0.96679  0.35167  0.94519  1.0000 -0.1655381596
N   N12       1.0  0.53321  0.85167  0.05481  1.0000 -0.1655381596
N   N13       1.0  0.87953  0.94782  0.55964  1.0000 -0.0166278028
N   N14       1.0  0.62047  0.44782  0.44036  1.0000 -0.0166278028
N   N15       1.0  0.87953  0.44782  0.94036  1.0000 -0.0166278028
N   N16       1.0  0.62047  0.94782  0.05964  1.0000 -0.0166278028
N   N17       1.0  0.00723  0.81000  0.38504  1.0000 -0.2147288249
N   N18       1.0  0.49277  0.31000  0.61496  1.0000 -0.215149142
N   N19       1.0  0.00723  0.31000  0.11496  1.0000 -0.2147288249
N   N20       1.0  0.49277  0.81000  0.88504  1.0000 -0.215149142
N   N21       1.0  0.00190  0.90610  0.59790  1.0000 -0.189139456
N   N22       1.0  0.49810  0.40610  0.40210  1.0000 -0.189139456
N   N23       1.0  0.00190  0.40610  0.90210  1.0000 -0.189139456
N   N24       1.0  0.49810  0.90610  0.09790  1.0000 -0.189139456
N   N25       1.0  0.87690  0.73009  0.83323  1.0000 -0.0166278028
N   N26       1.0  0.62310  0.23009  0.16677  1.0000 -0.0166278028
N   N27       1.0  0.87690  0.23009  0.66677  1.0000 -0.0166278028
N   N28       1.0  0.62310  0.73009  0.33323  1.0000 -0.0166278028
N   N29       1.0  0.94930  0.73815  0.93049  1.0000 -0.1805476514
N   N30       1.0  0.55070  0.23815  0.06951  1.0000 -0.1805476514
N   N31       1.0  0.94930  0.23815  0.56951  1.0000 -0.1805476514
N   N32       1.0  0.55070  0.73815  0.43049  1.0000 -0.1805476514
N   N33       1.0  0.03321  0.64833  0.05481  1.0000 -0.1655381596
N   N34       1.0  0.46679  0.14833  0.94519  1.0000 -0.1648937539
N   N35       1.0  0.03321  0.14833  0.44519  1.0000 -0.1655381596
N   N36       1.0  0.46679  0.64833  0.55481  1.0000 -0.1648937539
N   N37       1.0  0.12047  0.55218  0.05964  1.0000 -0.0166278028
N   N38       1.0  0.37953  0.05218  0.94036  1.0000 -0.0166278028
N   N39       1.0  0.12047  0.05218  0.44036  1.0000 -0.0166278028
N   N40       1.0  0.37953  0.55218  0.55964  1.0000 -0.0166278028
N   N41       1.0  0.99277  0.69000  0.88504  1.0000 -0.2147288249
N   N42       1.0  0.50723  0.19000  0.11496  1.0000 -0.2147288249
N   N43       1.0  0.99277  0.19000  0.61496  1.0000 -0.2147288249
N   N44       1.0  0.50723  0.69000  0.38504  1.0000 -0.2147288249
N   N45       1.0  0.99810  0.59390  0.09790  1.0000 -0.189139456
N   N46       1.0  0.50190  0.09390  0.90210  1.0000 -0.189139456
N   N47       1.0  0.99810  0.09390  0.40210  1.0000 -0.189139456
N   N48       1.0  0.50190  0.59390  0.59790  1.0000 -0.189139456
O   O1        1.0  0.89620  0.69938  0.52116  1.0000 -0.5461230354
O   O2        1.0  0.60380  0.19938  0.47884  1.0000 -0.5461230354
O   O3        1.0  0.89620  0.19938  0.97884  1.0000 -0.5461230354
O   O4        1.0  0.60380  0.69938  0.02116  1.0000 -0.5461230354
O   O5        1.0  0.52019  0.10257  0.50032  1.0000 -0.5233972819
O   O6        1.0  0.97981  0.60257  0.49968  1.0000 -0.5233972819
O   O7        1.0  0.52019  0.60257  0.99968  1.0000 -0.5233972819
O   O8        1.0  0.97981  0.10257  0.00032  1.0000 -0.5233972819
O   O9        1.0  0.13234  0.73063  0.56728  1.0000 -0.5392717199
O   O10       1.0  0.36766  0.23063  0.43272  1.0000 -0.5392717199
O   O11       1.0  0.13234  0.23063  0.93272  1.0000 -0.5392717199
O   O12       1.0  0.36766  0.73063  0.06728  1.0000 -0.5392717199
O   O13       1.0  0.04015  0.72450  0.65257  1.0000 -0.5265926049
O   O14       1.0  0.45985  0.22450  0.34743  1.0000 -0.5265926049
O   O15       1.0  0.04015  0.22450  0.84743  1.0000 -0.5265926049
O   O16       1.0  0.45985  0.72450  0.15257  1.0000 -0.5265926049
O   O17       1.0  0.10380  0.80062  0.02116  1.0000 -0.5461230354
O   O18       1.0  0.39620  0.30062  0.97884  1.0000 -0.5461230354
O   O19       1.0  0.10380  0.30062  0.47884  1.0000 -0.5461230354
O   O20       1.0  0.39620  0.80062  0.52116  1.0000 -0.5461230354
O   O21       1.0  0.47981  0.39743  0.00032  1.0000 -0.5233972819
O   O22       1.0  0.02019  0.89743  0.99968  1.0000 -0.5233972819
O   O23       1.0  0.47981  0.89743  0.49968  1.0000 -0.5233972819
O   O24       1.0  0.02019  0.39743  0.50032  1.0000 -0.5233972819
O   O25       1.0  0.86766  0.76937  0.06728  1.0000 -0.5392717199
O   O26       1.0  0.63234  0.26937  0.93272  1.0000 -0.5392717199
O   O27       1.0  0.86766  0.26937  0.43272  1.0000 -0.5392717199
O   O28       1.0  0.63234  0.76937  0.56728  1.0000 -0.5392717199
O   O29       1.0  0.95985  0.77550  0.15257  1.0000 -0.5265926049
O   O30       1.0  0.54015  0.27550  0.84743  1.0000 -0.5265926049
O   O31       1.0  0.95985  0.27550  0.34743  1.0000 -0.5265926049
O   O32       1.0  0.54015  0.77550  0.65257  1.0000 -0.5265926049
