# DDEC6 charges by PACMAN v1.1 (https://github.com/mtap-research/PACMAN-charge/)
data_2017[Zn][apo]3[ASR]1
_chemical_formula_sum              "Zn8 P8 H104 C168 O56"
_cell_length_a       14.5771
_cell_length_b       16.3342
_cell_length_c       23.5757
_cell_angle_alpha    90
_cell_angle_beta     90
_cell_angle_gamma    90

_symmetry_space_group_name_H-M    "P 1"
_symmetry_Int_Tables_number       1

loop_
  _symmetry_equiv_pos_as_xyz
  'x, y, z'

loop_
  _atom_site_type_symbol
  _atom_site_label
  _atom_site_symmetry_multiplicity
  _atom_site_fract_x
  _atom_site_fract_y
  _atom_site_fract_z
  _atom_site_occupancy
  _atom_site_charge
Zn  Zn1       1.0  0.18369  0.06746  0.14679  1.0000 0.9550696817
Zn  Zn2       1.0  0.68369  0.43254  0.35321  1.0000 0.9550696817
Zn  Zn3       1.0  0.31631  0.93254  0.14679  1.0000 0.9550696817
Zn  Zn4       1.0  0.81631  0.56746  0.35321  1.0000 0.9550696817
Zn  Zn5       1.0  0.81631  0.93254  0.85321  1.0000 0.9550696817
Zn  Zn6       1.0  0.31631  0.56746  0.64679  1.0000 0.9531561541
Zn  Zn7       1.0  0.68369  0.06746  0.85321  1.0000 0.9550696817
Zn  Zn8       1.0  0.18369  0.43254  0.64679  1.0000 0.9531561541
P   P1        1.0  0.07586  0.23577  0.11085  1.0000 0.8557323622
P   P2        1.0  0.57586  0.26423  0.38915  1.0000 0.8557323622
P   P3        1.0  0.42414  0.76423  0.11085  1.0000 0.8557323622
P   P4        1.0  0.92414  0.73577  0.38915  1.0000 0.8557323622
P   P5        1.0  0.92414  0.76423  0.88915  1.0000 0.8557323622
P   P6        1.0  0.42414  0.73577  0.61085  1.0000 0.8557323622
P   P7        1.0  0.57586  0.23577  0.88915  1.0000 0.8557323622
P   P8        1.0  0.07586  0.26423  0.61085  1.0000 0.8557323622
H   H1        1.0  0.44370  0.48450  0.96600  1.0000 0.3438548254
H   H2        1.0  0.05170  0.41150  0.13110  1.0000 0.1190533825
H   H3        1.0  0.96670  0.48490  0.19740  1.0000 0.1276618382
H   H4        1.0  0.85420  0.27700  0.25290  1.0000 0.1276618382
H   H5        1.0  0.94140  0.20440  0.18970  1.0000 0.1276618382
H   H6        1.0  0.88980  0.25790  0.06940  1.0000 0.1132628596
H   H7        1.0  0.80330  0.19380  0.00020  1.0000 0.1190533825
H   H8        1.0  0.02230  0.06330  0.95290  1.0000 0.1190533825
H   H9        1.0  0.11060  0.12870  0.02010  1.0000 0.1276618382
H   H10       1.0  0.11560  0.32630  0.00740  1.0000 0.1190533825
H   H11       1.0  0.24020  0.40210  0.97590  1.0000 0.1190533825
H   H12       1.0  0.37200  0.35770  0.12160  1.0000 0.1190533825
H   H13       1.0  0.24900  0.27980  0.15330  1.0000 0.1276618382
H   H14       1.0  0.94370  0.01550  0.53400  1.0000 0.3438548254
H   H15       1.0  0.55170  0.08850  0.36890  1.0000 0.1190533825
H   H16       1.0  0.46670  0.01510  0.30260  1.0000 0.1276618382
H   H17       1.0  0.35420  0.22300  0.24710  1.0000 0.1276618382
H   H18       1.0  0.44140  0.29560  0.31030  1.0000 0.1276618382
H   H19       1.0  0.38980  0.24210  0.43060  1.0000 0.1132628596
H   H20       1.0  0.30330  0.30620  0.49980  1.0000 0.1190533825
H   H21       1.0  0.52230  0.43670  0.54710  1.0000 0.1190533825
H   H22       1.0  0.61060  0.37130  0.47990  1.0000 0.1276618382
H   H23       1.0  0.61560  0.17370  0.49260  1.0000 0.1190533825
H   H24       1.0  0.74020  0.09790  0.52410  1.0000 0.1190533825
H   H25       1.0  0.87200  0.14230  0.37840  1.0000 0.1190533825
H   H26       1.0  0.74900  0.22020  0.34670  1.0000 0.1276618382
H   H27       1.0  0.05630  0.51550  0.96600  1.0000 0.3438548254
H   H28       1.0  0.44830  0.58850  0.13110  1.0000 0.1190533825
H   H29       1.0  0.53330  0.51510  0.19740  1.0000 0.1276618382
H   H30       1.0  0.64580  0.72300  0.25290  1.0000 0.1276618382
H   H31       1.0  0.55860  0.79560  0.18970  1.0000 0.1276618382
H   H32       1.0  0.61020  0.74210  0.06940  1.0000 0.1132628596
H   H33       1.0  0.69670  0.80620  0.00020  1.0000 0.1190533825
H   H34       1.0  0.47770  0.93670  0.95290  1.0000 0.1190533825
H   H35       1.0  0.38940  0.87130  0.02010  1.0000 0.1276618382
H   H36       1.0  0.38440  0.67370  0.00740  1.0000 0.1190533825
H   H37       1.0  0.25980  0.59790  0.97590  1.0000 0.1190533825
H   H38       1.0  0.12800  0.64230  0.12160  1.0000 0.1190533825
H   H39       1.0  0.25100  0.72020  0.15330  1.0000 0.1276618382
H   H40       1.0  0.55630  0.98450  0.53400  1.0000 0.3438548254
H   H41       1.0  0.94830  0.91150  0.36890  1.0000 0.1190533825
H   H42       1.0  0.03330  0.98490  0.30260  1.0000 0.1276618382
H   H43       1.0  0.14580  0.77700  0.24710  1.0000 0.1276618382
H   H44       1.0  0.05860  0.70440  0.31030  1.0000 0.1276618382
H   H45       1.0  0.11020  0.75790  0.43060  1.0000 0.1132628596
H   H46       1.0  0.19670  0.69380  0.49980  1.0000 0.1190533825
H   H47       1.0  0.97770  0.56330  0.54710  1.0000 0.1190533825
H   H48       1.0  0.88940  0.62870  0.47990  1.0000 0.1276618382
H   H49       1.0  0.88440  0.82630  0.49260  1.0000 0.1190533825
H   H50       1.0  0.75980  0.90210  0.52410  1.0000 0.1190533825
H   H51       1.0  0.62800  0.85770  0.37840  1.0000 0.1190533825
H   H52       1.0  0.75100  0.77980  0.34670  1.0000 0.1276618382
H   H53       1.0  0.55630  0.51550  0.03400  1.0000 0.3438548254
H   H54       1.0  0.94830  0.58850  0.86890  1.0000 0.1190533825
H   H55       1.0  0.03330  0.51510  0.80260  1.0000 0.1276618382
H   H56       1.0  0.14580  0.72300  0.74710  1.0000 0.1276618382
H   H57       1.0  0.05860  0.79560  0.81030  1.0000 0.1276618382
H   H58       1.0  0.11020  0.74210  0.93060  1.0000 0.1132628596
H   H59       1.0  0.19670  0.80620  0.99980  1.0000 0.1190533825
H   H60       1.0  0.97770  0.93670  0.04710  1.0000 0.1190533825
H   H61       1.0  0.88940  0.87130  0.97990  1.0000 0.1276618382
H   H62       1.0  0.88440  0.67370  0.99260  1.0000 0.1190533825
H   H63       1.0  0.75980  0.59790  0.02410  1.0000 0.1190533825
H   H64       1.0  0.62800  0.64230  0.87840  1.0000 0.1190533825
H   H65       1.0  0.75100  0.72020  0.84670  1.0000 0.1276618382
H   H66       1.0  0.05630  0.98450  0.46600  1.0000 0.3438548254
H   H67       1.0  0.44830  0.91150  0.63110  1.0000 0.1190533825
H   H68       1.0  0.53330  0.98490  0.69740  1.0000 0.1276618382
H   H69       1.0  0.64580  0.77700  0.75290  1.0000 0.1276618382
H   H70       1.0  0.55860  0.70440  0.68970  1.0000 0.1276618382
H   H71       1.0  0.61020  0.75790  0.56940  1.0000 0.1132628596
H   H72       1.0  0.69670  0.69380  0.50020  1.0000 0.1190533825
H   H73       1.0  0.47770  0.56330  0.45290  1.0000 0.1190533825
H   H74       1.0  0.38940  0.62870  0.52010  1.0000 0.1276618382
H   H75       1.0  0.38440  0.82630  0.50740  1.0000 0.1190533825
H   H76       1.0  0.25980  0.90210  0.47590  1.0000 0.1190533825
H   H77       1.0  0.12800  0.85770  0.62160  1.0000 0.1190533825
H   H78       1.0  0.25100  0.77980  0.65330  1.0000 0.1276618382
H   H79       1.0  0.94370  0.48450  0.03400  1.0000 0.3438548254
H   H80       1.0  0.55170  0.41150  0.86890  1.0000 0.1190533825
H   H81       1.0  0.46670  0.48490  0.80260  1.0000 0.1276618382
H   H82       1.0  0.35420  0.27700  0.74710  1.0000 0.1276618382
H   H83       1.0  0.44140  0.20440  0.81030  1.0000 0.1276618382
H   H84       1.0  0.38980  0.25790  0.93060  1.0000 0.1132628596
H   H85       1.0  0.30330  0.19380  0.99980  1.0000 0.1190533825
H   H86       1.0  0.52230  0.06330  0.04710  1.0000 0.1190533825
H   H87       1.0  0.61060  0.12870  0.97990  1.0000 0.1276618382
H   H88       1.0  0.61560  0.32630  0.99260  1.0000 0.1190533825
H   H89       1.0  0.74020  0.40210  0.02410  1.0000 0.1190533825
H   H90       1.0  0.87200  0.35770  0.87840  1.0000 0.1190533825
H   H91       1.0  0.74900  0.27980  0.84670  1.0000 0.1276618382
H   H92       1.0  0.44370  0.01550  0.46600  1.0000 0.3438548254
H   H93       1.0  0.05170  0.08850  0.63110  1.0000 0.1190533825
H   H94       1.0  0.96670  0.01510  0.69740  1.0000 0.1276618382
H   H95       1.0  0.85420  0.22300  0.75290  1.0000 0.1276618382
H   H96       1.0  0.94140  0.29560  0.68970  1.0000 0.1276618382
H   H97       1.0  0.88980  0.24210  0.56940  1.0000 0.1132628596
H   H98       1.0  0.80330  0.30620  0.50020  1.0000 0.1190533825
H   H99       1.0  0.02230  0.43670  0.45290  1.0000 0.1190533825
H   H100      1.0  0.11060  0.37130  0.52010  1.0000 0.1276618382
H   H101      1.0  0.11560  0.17370  0.50740  1.0000 0.1190533825
H   H102      1.0  0.24020  0.09790  0.47590  1.0000 0.1190533825
H   H103      1.0  0.37200  0.14230  0.62160  1.0000 0.1190533825
H   H104      1.0  0.24900  0.22020  0.65330  1.0000 0.1276618382
C   C1        1.0  0.00650  0.30006  0.15480  1.0000 -0.1517137602
C   C2        1.0  0.01320  0.38420  0.15626  1.0000 -0.0905791137
C   C3        1.0  0.96160  0.42820  0.19595  1.0000 -0.0905791137
C   C4        1.0  0.90360  0.38905  0.23270  1.0000 -0.019151395
C   C5        1.0  0.89510  0.30430  0.22926  1.0000 -0.0988728647
C   C6        1.0  0.94670  0.26110  0.19115  1.0000 -0.0789447961
C   C7        1.0  0.84880  0.43447  0.27639  1.0000 0.5892923134
C   C8        1.0  0.00860  0.19902  0.05271  1.0000 -0.1605225285
C   C9        1.0  0.91670  0.21860  0.04612  1.0000 -0.0905791137
C   C10       1.0  0.86460  0.17970  0.00480  1.0000 -0.0905791137
C   C11       1.0  0.90300  0.12008  0.97047  1.0000 -0.0143642757
C   C12       1.0  0.99550  0.10210  0.97646  1.0000 -0.0988728647
C   C13       1.0  0.04860  0.14100  0.01681  1.0000 -0.0789447961
C   C14       1.0  0.84500  0.07512  0.92817  1.0000 0.5844589578
C   C15       1.0  0.16930  0.29560  0.08344  1.0000 -0.1517137602
C   C16       1.0  0.16700  0.33230  0.03042  1.0000 -0.0905791137
C   C17       1.0  0.24140  0.37800  0.01166  1.0000 -0.0988728647
C   C18       1.0  0.31710  0.38750  0.04613  1.0000 -0.019151395
C   C19       1.0  0.32050  0.35120  0.09880  1.0000 -0.0988728647
C   C20       1.0  0.24680  0.30470  0.11783  1.0000 -0.0667517526
C   C21       1.0  0.39940  0.43610  0.02570  1.0000 0.549197595
C   C22       1.0  0.50650  0.19994  0.34520  1.0000 -0.1517137602
C   C23       1.0  0.51320  0.11580  0.34374  1.0000 -0.0789447961
C   C24       1.0  0.46160  0.07180  0.30405  1.0000 -0.0905791137
C   C25       1.0  0.40360  0.11095  0.26730  1.0000 -0.019151395
C   C26       1.0  0.39510  0.19570  0.27074  1.0000 -0.0988728647
C   C27       1.0  0.44670  0.23890  0.30885  1.0000 -0.0789447961
C   C28       1.0  0.34880  0.06553  0.22361  1.0000 0.5892923134
C   C29       1.0  0.50860  0.30098  0.44729  1.0000 -0.1605225285
C   C30       1.0  0.41670  0.28140  0.45388  1.0000 -0.0905791137
C   C31       1.0  0.36460  0.32030  0.49520  1.0000 -0.0905791137
C   C32       1.0  0.40300  0.37992  0.52953  1.0000 -0.0143642757
C   C33       1.0  0.49550  0.39790  0.52354  1.0000 -0.0988728647
C   C34       1.0  0.54860  0.35900  0.48319  1.0000 -0.0789447961
C   C35       1.0  0.34500  0.42488  0.57183  1.0000 0.5844589578
C   C36       1.0  0.66930  0.20440  0.41656  1.0000 -0.1517137602
C   C37       1.0  0.66700  0.16770  0.46958  1.0000 -0.0905791137
C   C38       1.0  0.74140  0.12200  0.48834  1.0000 -0.0988728647
C   C39       1.0  0.81710  0.11250  0.45387  1.0000 -0.019151395
C   C40       1.0  0.82050  0.14880  0.40120  1.0000 -0.0988728647
C   C41       1.0  0.74680  0.19530  0.38217  1.0000 -0.0667517526
C   C42       1.0  0.89940  0.06390  0.47430  1.0000 0.549197595
C   C43       1.0  0.49350  0.69994  0.15480  1.0000 -0.1517137602
C   C44       1.0  0.48680  0.61580  0.15626  1.0000 -0.0905791137
C   C45       1.0  0.53840  0.57180  0.19595  1.0000 -0.0905791137
C   C46       1.0  0.59640  0.61095  0.23270  1.0000 -0.019151395
C   C47       1.0  0.60490  0.69570  0.22926  1.0000 -0.0988728647
C   C48       1.0  0.55330  0.73890  0.19115  1.0000 -0.0789447961
C   C49       1.0  0.65120  0.56553  0.27639  1.0000 0.5892923134
C   C50       1.0  0.49140  0.80098  0.05271  1.0000 -0.1605225285
C   C51       1.0  0.58330  0.78140  0.04612  1.0000 -0.0905791137
C   C52       1.0  0.63540  0.82030  0.00480  1.0000 -0.0905791137
C   C53       1.0  0.59700  0.87992  0.97047  1.0000 -0.0143642757
C   C54       1.0  0.50450  0.89790  0.97646  1.0000 -0.0988728647
C   C55       1.0  0.45140  0.85900  0.01681  1.0000 -0.0789447961
C   C56       1.0  0.65500  0.92488  0.92817  1.0000 0.5844589578
C   C57       1.0  0.33070  0.70440  0.08344  1.0000 -0.1517137602
C   C58       1.0  0.33300  0.66770  0.03042  1.0000 -0.0905791137
C   C59       1.0  0.25860  0.62200  0.01166  1.0000 -0.0988728647
C   C60       1.0  0.18290  0.61250  0.04613  1.0000 -0.019151395
C   C61       1.0  0.17950  0.64880  0.09880  1.0000 -0.0988728647
C   C62       1.0  0.25320  0.69530  0.11783  1.0000 -0.0667517526
C   C63       1.0  0.10060  0.56390  0.02570  1.0000 0.549197595
C   C64       1.0  0.99350  0.80006  0.34520  1.0000 -0.1517137602
C   C65       1.0  0.98680  0.88420  0.34374  1.0000 -0.0789447961
C   C66       1.0  0.03840  0.92820  0.30405  1.0000 -0.0905791137
C   C67       1.0  0.09640  0.88905  0.26730  1.0000 -0.019151395
C   C68       1.0  0.10490  0.80430  0.27074  1.0000 -0.0988728647
C   C69       1.0  0.05330  0.76110  0.30885  1.0000 -0.0789447961
C   C70       1.0  0.15120  0.93447  0.22361  1.0000 0.5892923134
C   C71       1.0  0.99140  0.69902  0.44729  1.0000 -0.1605225285
C   C72       1.0  0.08330  0.71860  0.45388  1.0000 -0.0905791137
C   C73       1.0  0.13540  0.67970  0.49520  1.0000 -0.0905791137
C   C74       1.0  0.09700  0.62008  0.52953  1.0000 -0.0143642757
C   C75       1.0  0.00450  0.60210  0.52354  1.0000 -0.0988728647
C   C76       1.0  0.95140  0.64100  0.48319  1.0000 -0.0789447961
C   C77       1.0  0.15500  0.57512  0.57183  1.0000 0.5844589578
C   C78       1.0  0.83070  0.79560  0.41656  1.0000 -0.1517137602
C   C79       1.0  0.83300  0.83230  0.46958  1.0000 -0.0905791137
C   C80       1.0  0.75860  0.87800  0.48834  1.0000 -0.0988728647
C   C81       1.0  0.68290  0.88750  0.45387  1.0000 -0.019151395
C   C82       1.0  0.67950  0.85120  0.40120  1.0000 -0.0988728647
C   C83       1.0  0.75320  0.80470  0.38217  1.0000 -0.0667517526
C   C84       1.0  0.60060  0.93610  0.47430  1.0000 0.549197595
C   C85       1.0  0.99350  0.69994  0.84520  1.0000 -0.1517137602
C   C86       1.0  0.98680  0.61580  0.84374  1.0000 -0.0789447961
C   C87       1.0  0.03840  0.57180  0.80405  1.0000 -0.0905791137
C   C88       1.0  0.09640  0.61095  0.76730  1.0000 -0.019151395
C   C89       1.0  0.10490  0.69570  0.77074  1.0000 -0.0988728647
C   C90       1.0  0.05330  0.73890  0.80885  1.0000 -0.0789447961
C   C91       1.0  0.15120  0.56553  0.72361  1.0000 0.5892923134
C   C92       1.0  0.99140  0.80098  0.94729  1.0000 -0.1605225285
C   C93       1.0  0.08330  0.78140  0.95388  1.0000 -0.0905791137
C   C94       1.0  0.13540  0.82030  0.99520  1.0000 -0.0905791137
C   C95       1.0  0.09700  0.87992  0.02953  1.0000 -0.0143642757
C   C96       1.0  0.00450  0.89790  0.02354  1.0000 -0.0988728647
C   C97       1.0  0.95140  0.85900  0.98319  1.0000 -0.0789447961
C   C98       1.0  0.15500  0.92488  0.07183  1.0000 0.5844589578
C   C99       1.0  0.83070  0.70440  0.91656  1.0000 -0.1517137602
C   C100      1.0  0.83300  0.66770  0.96958  1.0000 -0.0905791137
C   C101      1.0  0.75860  0.62200  0.98834  1.0000 -0.0988728647
C   C102      1.0  0.68290  0.61250  0.95387  1.0000 -0.019151395
C   C103      1.0  0.67950  0.64880  0.90120  1.0000 -0.0988728647
C   C104      1.0  0.75320  0.69530  0.88217  1.0000 -0.0667517526
C   C105      1.0  0.60060  0.56390  0.97430  1.0000 0.549197595
C   C106      1.0  0.49350  0.80006  0.65480  1.0000 -0.1517137602
C   C107      1.0  0.48680  0.88420  0.65626  1.0000 -0.0905791137
C   C108      1.0  0.53840  0.92820  0.69595  1.0000 -0.0905791137
C   C109      1.0  0.59640  0.88905  0.73270  1.0000 -0.019151395
C   C110      1.0  0.60490  0.80430  0.72926  1.0000 -0.0988728647
C   C111      1.0  0.55330  0.76110  0.69115  1.0000 -0.0789447961
C   C112      1.0  0.65120  0.93447  0.77639  1.0000 0.5892923134
C   C113      1.0  0.49140  0.69902  0.55271  1.0000 -0.1605225285
C   C114      1.0  0.58330  0.71860  0.54612  1.0000 -0.0905791137
C   C115      1.0  0.63540  0.67970  0.50480  1.0000 -0.0905791137
C   C116      1.0  0.59700  0.62008  0.47047  1.0000 -0.0143642757
C   C117      1.0  0.50450  0.60210  0.47646  1.0000 -0.0988728647
C   C118      1.0  0.45140  0.64100  0.51681  1.0000 -0.0789447961
C   C119      1.0  0.65500  0.57512  0.42817  1.0000 0.5844589578
C   C120      1.0  0.33070  0.79560  0.58344  1.0000 -0.1517137602
C   C121      1.0  0.33300  0.83230  0.53042  1.0000 -0.0905791137
C   C122      1.0  0.25860  0.87800  0.51166  1.0000 -0.0988728647
C   C123      1.0  0.18290  0.88750  0.54613  1.0000 -0.019151395
C   C124      1.0  0.17950  0.85120  0.59880  1.0000 -0.0988728647
C   C125      1.0  0.25320  0.80470  0.61783  1.0000 -0.0667517526
C   C126      1.0  0.10060  0.93610  0.52570  1.0000 0.549197595
C   C127      1.0  0.50650  0.30006  0.84520  1.0000 -0.1517137602
C   C128      1.0  0.51320  0.38420  0.84374  1.0000 -0.0789447961
C   C129      1.0  0.46160  0.42820  0.80405  1.0000 -0.0905791137
C   C130      1.0  0.40360  0.38905  0.76730  1.0000 -0.019151395
C   C131      1.0  0.39510  0.30430  0.77074  1.0000 -0.0988728647
C   C132      1.0  0.44670  0.26110  0.80885  1.0000 -0.0789447961
C   C133      1.0  0.34880  0.43447  0.72361  1.0000 0.5892923134
C   C134      1.0  0.50860  0.19902  0.94729  1.0000 -0.1605225285
C   C135      1.0  0.41670  0.21860  0.95388  1.0000 -0.0905791137
C   C136      1.0  0.36460  0.17970  0.99520  1.0000 -0.0905791137
C   C137      1.0  0.40300  0.12008  0.02953  1.0000 -0.0143642757
C   C138      1.0  0.49550  0.10210  0.02354  1.0000 -0.0988728647
C   C139      1.0  0.54860  0.14100  0.98319  1.0000 -0.0789447961
C   C140      1.0  0.34500  0.07512  0.07183  1.0000 0.5844589578
C   C141      1.0  0.66930  0.29560  0.91656  1.0000 -0.1517137602
C   C142      1.0  0.66700  0.33230  0.96958  1.0000 -0.0905791137
C   C143      1.0  0.74140  0.37800  0.98834  1.0000 -0.0988728647
C   C144      1.0  0.81710  0.38750  0.95387  1.0000 -0.019151395
C   C145      1.0  0.82050  0.35120  0.90120  1.0000 -0.0988728647
C   C146      1.0  0.74680  0.30470  0.88217  1.0000 -0.0667517526
C   C147      1.0  0.89940  0.43610  0.97430  1.0000 0.549197595
C   C148      1.0  0.00650  0.19994  0.65480  1.0000 -0.1517137602
C   C149      1.0  0.01320  0.11580  0.65626  1.0000 -0.0905791137
C   C150      1.0  0.96160  0.07180  0.69595  1.0000 -0.0905791137
C   C151      1.0  0.90360  0.11095  0.73270  1.0000 -0.019151395
C   C152      1.0  0.89510  0.19570  0.72926  1.0000 -0.0988728647
C   C153      1.0  0.94670  0.23890  0.69115  1.0000 -0.0789447961
C   C154      1.0  0.84880  0.06553  0.77639  1.0000 0.5892923134
C   C155      1.0  0.00860  0.30098  0.55271  1.0000 -0.1605225285
C   C156      1.0  0.91670  0.28140  0.54612  1.0000 -0.0905791137
C   C157      1.0  0.86460  0.32030  0.50480  1.0000 -0.0905791137
C   C158      1.0  0.90300  0.37992  0.47047  1.0000 -0.0143642757
C   C159      1.0  0.99550  0.39790  0.47646  1.0000 -0.0988728647
C   C160      1.0  0.04860  0.35900  0.51681  1.0000 -0.0789447961
C   C161      1.0  0.84500  0.42488  0.42817  1.0000 0.5844589578
C   C162      1.0  0.16930  0.20440  0.58344  1.0000 -0.1517137602
C   C163      1.0  0.16700  0.16770  0.53042  1.0000 -0.0905791137
C   C164      1.0  0.24140  0.12200  0.51166  1.0000 -0.0988728647
C   C165      1.0  0.31710  0.11250  0.54613  1.0000 -0.019151395
C   C166      1.0  0.32050  0.14880  0.59880  1.0000 -0.0988728647
C   C167      1.0  0.24680  0.19530  0.61783  1.0000 -0.0667517526
C   C168      1.0  0.39940  0.06390  0.52570  1.0000 0.549197595
O   O1        1.0  0.87038  0.50940  0.28429  1.0000 -0.5391924871
O   O2        1.0  0.78908  0.39557  0.30239  1.0000 -0.548964003
O   O3        1.0  0.76424  0.09890  0.92152  1.0000 -0.548964003
O   O4        1.0  0.88261  0.01586  0.90251  1.0000 -0.548964003
O   O5        1.0  0.39700  0.45870  0.97356  1.0000 -0.4341366284
O   O6        1.0  0.46170  0.45170  0.05911  1.0000 -0.5215618802
O   O7        1.0  0.10917  0.16686  0.14727  1.0000 -0.6171160681
O   O8        1.0  0.37038  0.99060  0.21571  1.0000 -0.5391924871
O   O9        1.0  0.28908  0.10443  0.19761  1.0000 -0.548964003
O   O10       1.0  0.26424  0.40110  0.57848  1.0000 -0.548964003
O   O11       1.0  0.38261  0.48414  0.59749  1.0000 -0.548964003
O   O12       1.0  0.89700  0.04130  0.52644  1.0000 -0.4353058232
O   O13       1.0  0.96170  0.04830  0.44089  1.0000 -0.5215618802
O   O14       1.0  0.60917  0.33314  0.35273  1.0000 -0.6171160681
O   O15       1.0  0.62962  0.49060  0.28429  1.0000 -0.5391924871
O   O16       1.0  0.71092  0.60443  0.30239  1.0000 -0.548964003
O   O17       1.0  0.73576  0.90110  0.92152  1.0000 -0.548964003
O   O18       1.0  0.61739  0.98414  0.90251  1.0000 -0.548964003
O   O19       1.0  0.10300  0.54130  0.97356  1.0000 -0.4341366284
O   O20       1.0  0.03830  0.54830  0.05911  1.0000 -0.5215618802
O   O21       1.0  0.39083  0.83314  0.14727  1.0000 -0.6171160681
O   O22       1.0  0.12962  0.00940  0.21571  1.0000 -0.5391924871
O   O23       1.0  0.21092  0.89557  0.19761  1.0000 -0.548964003
O   O24       1.0  0.23576  0.59890  0.57848  1.0000 -0.548964003
O   O25       1.0  0.11739  0.51586  0.59749  1.0000 -0.548964003
O   O26       1.0  0.60300  0.95870  0.52644  1.0000 -0.4353058232
O   O27       1.0  0.53830  0.95170  0.44089  1.0000 -0.5215618802
O   O28       1.0  0.89083  0.66686  0.35273  1.0000 -0.6171160681
O   O29       1.0  0.12962  0.49060  0.71571  1.0000 -0.5391924871
O   O30       1.0  0.21092  0.60443  0.69761  1.0000 -0.548964003
O   O31       1.0  0.23576  0.90110  0.07848  1.0000 -0.548964003
O   O32       1.0  0.11739  0.98414  0.09749  1.0000 -0.548964003
O   O33       1.0  0.60300  0.54130  0.02644  1.0000 -0.4341366284
O   O34       1.0  0.53830  0.54830  0.94089  1.0000 -0.5215618802
O   O35       1.0  0.89083  0.83314  0.85273  1.0000 -0.6171160681
O   O36       1.0  0.62962  0.00940  0.78429  1.0000 -0.5391924871
O   O37       1.0  0.71092  0.89557  0.80239  1.0000 -0.548964003
O   O38       1.0  0.73576  0.59890  0.42152  1.0000 -0.548964003
O   O39       1.0  0.61739  0.51586  0.40251  1.0000 -0.548964003
O   O40       1.0  0.10300  0.95870  0.47356  1.0000 -0.4341366284
O   O41       1.0  0.03830  0.95170  0.55911  1.0000 -0.5215618802
O   O42       1.0  0.39083  0.66686  0.64727  1.0000 -0.6171160681
O   O43       1.0  0.37038  0.50940  0.71571  1.0000 -0.5391924871
O   O44       1.0  0.28908  0.39557  0.69761  1.0000 -0.548964003
O   O45       1.0  0.26424  0.09890  0.07848  1.0000 -0.548964003
O   O46       1.0  0.38261  0.01586  0.09749  1.0000 -0.548964003
O   O47       1.0  0.89700  0.45870  0.02644  1.0000 -0.4341366284
O   O48       1.0  0.96170  0.45170  0.94089  1.0000 -0.5215618802
O   O49       1.0  0.60917  0.16686  0.85273  1.0000 -0.6171160681
O   O50       1.0  0.87038  0.99060  0.78429  1.0000 -0.5391924871
O   O51       1.0  0.78908  0.10443  0.80239  1.0000 -0.548964003
O   O52       1.0  0.76424  0.40110  0.42152  1.0000 -0.548964003
O   O53       1.0  0.88261  0.48414  0.40251  1.0000 -0.548964003
O   O54       1.0  0.39700  0.04130  0.47356  1.0000 -0.4341366284
O   O55       1.0  0.46170  0.04830  0.55911  1.0000 -0.5215618802
O   O56       1.0  0.10917  0.33314  0.64727  1.0000 -0.6171160681
