# DDEC6 charges by PACMAN v1.1 (https://github.com/mtap-research/PACMAN-charge/)
data_c9dt02472g2_FSR_pacman
_symmetry_space_group_name_H-M   'P 1'
_cell_length_a   9.96180000
_cell_length_b   9.96180000
_cell_length_c   11.59310000
_cell_angle_alpha   90.00000000
_cell_angle_beta   90.00000000
_cell_angle_gamma   90.00000000
_symmetry_Int_Tables_number   1
_chemical_formula_structural   InH6(C9O4)2
_chemical_formula_sum   'In1 H6 C18 O8'
_cell_volume   1150.46978872
_cell_formula_units_Z   1
loop_
 _symmetry_equiv_pos_site_id
 _symmetry_equiv_pos_as_xyz
  1  'x, y, z'
loop_
 _atom_site_type_symbol
 _atom_site_label
 _atom_site_symmetry_multiplicity
 _atom_site_fract_x
 _atom_site_fract_y
 _atom_site_fract_z
 _atom_site_occupancy
 _atom_site_charge
In  In1  1  0.50000000  0.50000000  0.50000000  1.0 0.7498025939
H  H1  1  0.50000000  0.00000000  0.50000000  1.0 0.1053508415
H  H2  1  0.00000000  0.50000000  0.50000000  1.0 0.1053508415
H  H3  1  0.50000000  0.20120000  0.19530000  0.5 0.1327303775
H  H4  1  0.50000000  0.79880000  0.19530000  0.5 0.1327303775
H  H5  1  0.79880000  0.50000000  0.19530000  0.5 0.1327303775
H  H6  1  0.20120000  0.50000000  0.19530000  0.5 0.1327303775
H  H7  1  0.50000000  0.20120000  0.80470000  0.5 0.1327303775
H  H8  1  0.50000000  0.79880000  0.80470000  0.5 0.1327303775
H  H9  1  0.20120000  0.50000000  0.80470000  0.5 0.1327303775
H  H10  1  0.79880000  0.50000000  0.80470000  0.5 0.1327303775
C  C1  1  0.50000000  0.12030000  0.35560000  0.5 -0.049460524
C  C2  1  0.50000000  0.25190000  0.41540000  0.5 0.2629261694
C  C3  1  0.50000000  0.12050000  0.23560000  0.5 -0.1799073684
C  C4  1  0.50000000  0.87970000  0.35560000  0.5 -0.049460524
C  C5  1  0.50000000  0.74810000  0.41540000  0.5 0.2629261694
C  C6  1  0.50000000  0.87950000  0.23560000  0.5 -0.1799073684
C  C7  1  0.87970000  0.50000000  0.35560000  0.5 -0.049460524
C  C8  1  0.74810000  0.50000000  0.41540000  0.5 0.2629261694
C  C9  1  0.87950000  0.50000000  0.23560000  0.5 -0.1799073684
C  C10  1  0.12030000  0.50000000  0.35560000  0.5 -0.049460524
C  C11  1  0.25190000  0.50000000  0.41540000  0.5 0.2629261694
C  C12  1  0.12050000  0.50000000  0.23560000  0.5 -0.1799073684
C  C13  1  0.50000000  0.12030000  0.64440000  0.5 -0.049460524
C  C14  1  0.50000000  0.25190000  0.58460000  0.5 0.2629261694
C  C15  1  0.50000000  0.12050000  0.76440000  0.5 -0.1799073684
C  C16  1  0.50000000  0.87970000  0.64440000  0.5 -0.049460524
C  C17  1  0.50000000  0.74810000  0.58460000  0.5 0.2629261694
C  C18  1  0.50000000  0.87950000  0.76440000  0.5 -0.1799073684
C  C19  1  0.12030000  0.50000000  0.64440000  0.5 -0.049460524
C  C20  1  0.25190000  0.50000000  0.58460000  0.5 0.2629261694
C  C21  1  0.12050000  0.50000000  0.76440000  0.5 -0.1799073684
C  C22  1  0.87970000  0.50000000  0.64440000  0.5 -0.049460524
C  C23  1  0.74810000  0.50000000  0.58460000  0.5 0.2629261694
C  C24  1  0.87950000  0.50000000  0.76440000  0.5 -0.1799073684
C  C25  1  0.50000000  0.00000000  0.04760000  0.5 -0.0425820819
C  C26  1  0.50000000  0.00000000  0.41964000  0.5 -0.1799073684
C  C27  1  0.50000000  0.00000000  0.17640000  0.5 0.1327303775
C  C28  1  0.00000000  0.50000000  0.04760000  0.5 -0.0425820819
C  C29  1  0.00000000  0.50000000  0.41964000  0.5 -0.1799073684
C  C30  1  0.00000000  0.50000000  0.17640000  0.5 0.1244665727
C  C31  1  0.50000000  0.00000000  0.95240000  0.5 -0.0425820819
C  C32  1  0.50000000  0.00000000  0.58036000  0.5 -0.1799073684
C  C33  1  0.50000000  0.00000000  0.82360000  0.5 0.1244665727
C  C34  1  0.00000000  0.50000000  0.95240000  0.5 -0.0425820819
C  C35  1  0.00000000  0.50000000  0.58036000  0.5 -0.1799073684
C  C36  1  0.00000000  0.50000000  0.82360000  0.5 0.1244665727
O  O1  1  0.50000000  0.35680000  0.35830000  0.5 -0.2690279291
O  O2  1  0.50000000  0.25830000  0.52250000  0.5 0.030654703
O  O3  1  0.50000000  0.64320000  0.35830000  0.5 -0.2690279291
O  O4  1  0.50000000  0.74170000  0.52250000  0.5 0.030654703
O  O5  1  0.64320000  0.50000000  0.35830000  0.5 -0.2690279291
O  O6  1  0.74170000  0.50000000  0.52250000  0.5 0.030654703
O  O7  1  0.35680000  0.50000000  0.35830000  0.5 -0.2690279291
O  O8  1  0.25830000  0.50000000  0.52250000  0.5 0.030654703
O  O9  1  0.50000000  0.35680000  0.64170000  0.5 -0.2690279291
O  O10  1  0.50000000  0.25830000  0.47750000  0.5 0.030654703
O  O11  1  0.50000000  0.64320000  0.64170000  0.5 -0.2690279291
O  O12  1  0.50000000  0.74170000  0.47750000  0.5 0.030654703
O  O13  1  0.35680000  0.50000000  0.64170000  0.5 -0.2690279291
O  O14  1  0.25830000  0.50000000  0.47750000  0.5 0.030654703
O  O15  1  0.64320000  0.50000000  0.64170000  0.5 -0.2690279291
O  O16  1  0.74170000  0.50000000  0.47750000  0.5 0.030654703
