# DDEC6 charges by PACMAN v1.1 (https://github.com/mtap-research/PACMAN-charge/)
data_c5dt03710g2_1_ASR_pacman
_symmetry_space_group_name_H-M   'P 1'
_cell_length_a   10.93990000
_cell_length_b   10.93990000
_cell_length_c   9.61400000
_cell_angle_alpha   90.00000000
_cell_angle_beta   90.00000000
_cell_angle_gamma   90.00000000
_symmetry_Int_Tables_number   1
_chemical_formula_structural   ZnH16C11NO4
_chemical_formula_sum   'Zn2 H32 C22 N2 O8'
_cell_volume   1150.61709506
_cell_formula_units_Z   2
loop_
 _symmetry_equiv_pos_site_id
 _symmetry_equiv_pos_as_xyz
  1  'x, y, z'
loop_
 _atom_site_type_symbol
 _atom_site_label
 _atom_site_symmetry_multiplicity
 _atom_site_fract_x
 _atom_site_fract_y
 _atom_site_fract_z
 _atom_site_occupancy
 _atom_site_charge
Zn  Zn1  1  0.00000000  0.00000000  0.34992000  1.0 0.8242175643
Zn  Zn2  1  0.00000000  0.00000000  0.65008000  1.0 0.8242175643
H  H1  1  0.00000000  0.39480000  0.70550000  1.0 0.1453059845
H  H2  1  0.00000000  0.60520000  0.70550000  1.0 0.1453059845
H  H3  1  0.39480000  0.00000000  0.70550000  1.0 0.1453059845
H  H4  1  0.60520000  0.00000000  0.70550000  1.0 0.1453059845
H  H5  1  0.00000000  0.60520000  0.29450000  1.0 0.1453059845
H  H6  1  0.00000000  0.39480000  0.29450000  1.0 0.1453059845
H  H7  1  0.39480000  0.00000000  0.29450000  1.0 0.1453059845
H  H8  1  0.60520000  0.00000000  0.29450000  1.0 0.1453059845
H  H9  1  0.12560000  0.13100000  0.11350000  0.75 0.1133787286
H  H10  1  0.87440000  0.86900000  0.11350000  0.75 0.1133787286
H  H11  1  0.13100000  0.87440000  0.11350000  0.75 0.1133787286
H  H12  1  0.86900000  0.12560000  0.11350000  0.75 0.1133787286
H  H13  1  0.12560000  0.86900000  0.88650000  0.75 0.1133787286
H  H14  1  0.87440000  0.13100000  0.88650000  0.75 0.1133787286
H  H15  1  0.13100000  0.12560000  0.88650000  0.75 0.1133787286
H  H16  1  0.86900000  0.87440000  0.88650000  0.75 0.1133787286
H  H17  1  0.87440000  0.86900000  0.88650000  0.75 0.1133787286
H  H18  1  0.12560000  0.13100000  0.88650000  0.75 0.1133787286
H  H19  1  0.86900000  0.12560000  0.88650000  0.75 0.1133787286
H  H20  1  0.13100000  0.87440000  0.88650000  0.75 0.1133787286
H  H21  1  0.87440000  0.13100000  0.11350000  0.75 0.1133787286
H  H22  1  0.12560000  0.86900000  0.11350000  0.75 0.1133787286
H  H23  1  0.86900000  0.87440000  0.11350000  0.75 0.1133787286
H  H24  1  0.13100000  0.12560000  0.11350000  0.75 0.1133787286
H  H25  1  0.18150000  0.99880000  0.11350000  0.75 0.1133787286
H  H26  1  0.81850000  0.00120000  0.11350000  0.75 0.1133787286
H  H27  1  0.99880000  0.81850000  0.11350000  0.75 0.1133787286
H  H28  1  0.00120000  0.18150000  0.11350000  0.75 0.1133787286
H  H29  1  0.18150000  0.00120000  0.88650000  0.75 0.1133787286
H  H30  1  0.81850000  0.99880000  0.88650000  0.75 0.1133787286
H  H31  1  0.99880000  0.18150000  0.88650000  0.75 0.1133787286
H  H32  1  0.00120000  0.81850000  0.88650000  0.75 0.1133787286
H  H33  1  0.81850000  0.00120000  0.88650000  0.75 0.1133787286
H  H34  1  0.18150000  0.99880000  0.88650000  0.75 0.1133787286
H  H35  1  0.00120000  0.18150000  0.88650000  0.75 0.1133787286
H  H36  1  0.99880000  0.81850000  0.88650000  0.75 0.1133787286
H  H37  1  0.81850000  0.99880000  0.11350000  0.75 0.1133787286
H  H38  1  0.18150000  0.00120000  0.11350000  0.75 0.1133787286
H  H39  1  0.00120000  0.81850000  0.11350000  0.75 0.1133787286
H  H40  1  0.99880000  0.18150000  0.11350000  0.75 0.1133787286
C  C1  1  0.00000000  0.23530000  0.50000000  1.0 0.5723562305
C  C2  1  0.00000000  0.76470000  0.50000000  1.0 0.5723562305
C  C3  1  0.23530000  0.00000000  0.50000000  1.0 0.5723562305
C  C4  1  0.76470000  0.00000000  0.50000000  1.0 0.5723562305
C  C5  1  0.00000000  0.37280000  0.50000000  1.0 0.0528425266
C  C6  1  0.00000000  0.62720000  0.50000000  1.0 0.0528425266
C  C7  1  0.37280000  0.00000000  0.50000000  1.0 0.0528425266
C  C8  1  0.62720000  0.00000000  0.50000000  1.0 0.0528425266
C  C9  1  0.00000000  0.43672000  0.62140000  1.0 -0.105590419
C  C10  1  0.00000000  0.56328000  0.62140000  1.0 -0.105590419
C  C11  1  0.43672000  0.00000000  0.62140000  1.0 -0.105590419
C  C12  1  0.56328000  0.00000000  0.62140000  1.0 -0.105590419
C  C13  1  0.00000000  0.56328000  0.37860000  1.0 -0.105590419
C  C14  1  0.00000000  0.43672000  0.37860000  1.0 -0.105590419
C  C15  1  0.43672000  0.00000000  0.37860000  1.0 -0.105590419
C  C16  1  0.56328000  0.00000000  0.37860000  1.0 -0.105590419
C  C17  1  0.11400000  0.04820000  0.07990000  0.375 -0.0672225898
C  C18  1  0.88600000  0.95180000  0.07990000  0.375 -0.0672225898
C  C19  1  0.04820000  0.88600000  0.07990000  0.375 -0.0672225898
C  C20  1  0.95180000  0.11400000  0.07990000  0.375 -0.0672225898
C  C21  1  0.11400000  0.95180000  0.92010000  0.375 -0.0672225898
C  C22  1  0.88600000  0.04820000  0.92010000  0.375 -0.0672225898
C  C23  1  0.04820000  0.11400000  0.92010000  0.375 -0.0672225898
C  C24  1  0.95180000  0.88600000  0.92010000  0.375 -0.0672225898
C  C25  1  0.88600000  0.95180000  0.92010000  0.375 -0.0672225898
C  C26  1  0.11400000  0.04820000  0.92010000  0.375 -0.0672225898
C  C27  1  0.95180000  0.11400000  0.92010000  0.375 -0.0672225898
C  C28  1  0.04820000  0.88600000  0.92010000  0.375 -0.0672225898
C  C29  1  0.88600000  0.04820000  0.07990000  0.375 -0.0672225898
C  C30  1  0.11400000  0.95180000  0.07990000  0.375 -0.0672225898
C  C31  1  0.95180000  0.88600000  0.07990000  0.375 -0.0672225898
C  C32  1  0.04820000  0.11400000  0.07990000  0.375 -0.0672225898
N  N1  1  0.00000000  0.00000000  0.13370000  1.0 -0.0962142992
N  N2  1  0.00000000  0.00000000  0.86630000  1.0 -0.0962142992
O  O1  1  0.01660000  0.18272000  0.38486000  0.5 -0.4266927476
O  O2  1  0.98340000  0.81728000  0.38486000  0.5 -0.4266927476
O  O3  1  0.18272000  0.98340000  0.38486000  0.5 -0.4266927476
O  O4  1  0.81728000  0.01660000  0.38486000  0.5 -0.4266927476
O  O5  1  0.01660000  0.81728000  0.61514000  0.5 -0.4266927476
O  O6  1  0.98340000  0.18272000  0.61514000  0.5 -0.4266927476
O  O7  1  0.18272000  0.01660000  0.61514000  0.5 -0.4266927476
O  O8  1  0.81728000  0.98340000  0.61514000  0.5 -0.4266927476
O  O9  1  0.98340000  0.81728000  0.61514000  0.5 -0.4266927476
O  O10  1  0.01660000  0.18272000  0.61514000  0.5 -0.4266927476
O  O11  1  0.81728000  0.01660000  0.61514000  0.5 -0.4266927476
O  O12  1  0.18272000  0.98340000  0.61514000  0.5 -0.4266927476
O  O13  1  0.98340000  0.18272000  0.38486000  0.5 -0.4266927476
O  O14  1  0.01660000  0.81728000  0.38486000  0.5 -0.4266927476
O  O15  1  0.81728000  0.98340000  0.38486000  0.5 -0.4266927476
O  O16  1  0.18272000  0.01660000  0.38486000  0.5 -0.4266927476
