# DDEC6 charges by PACMAN v1.1 (https://github.com/mtap-research/PACMAN-charge/)
data_c6ce02476a2_2_FSR_pacman
_symmetry_space_group_name_H-M   'P 1'
_cell_length_a   8.46200000
_cell_length_b   14.54900000
_cell_length_c   18.79900000
_cell_angle_alpha   90.00000000
_cell_angle_beta   90.00000000
_cell_angle_gamma   90.00000000
_symmetry_Int_Tables_number   1
_chemical_formula_structural   ZnH4C6(N3O2)2
_chemical_formula_sum   'Zn8 H32 C48 N48 O32'
_cell_volume   2314.41328076
_cell_formula_units_Z   8
loop_
 _symmetry_equiv_pos_site_id
 _symmetry_equiv_pos_as_xyz
  1  'x, y, z'
loop_
 _atom_site_type_symbol
 _atom_site_label
 _atom_site_symmetry_multiplicity
 _atom_site_fract_x
 _atom_site_fract_y
 _atom_site_fract_z
 _atom_site_occupancy
 _atom_site_charge
Zn  Zn1  1  0.88751000  0.06121000  0.85522000  1.0 0.5462623806
Zn  Zn2  1  0.61249000  0.43879000  0.85522000  1.0 0.5462623806
Zn  Zn3  1  0.38751000  0.93879000  0.64478000  1.0 0.5462623806
Zn  Zn4  1  0.11249000  0.56121000  0.64478000  1.0 0.5462623806
Zn  Zn5  1  0.11249000  0.93879000  0.14478000  1.0 0.5462623806
Zn  Zn6  1  0.38751000  0.56121000  0.14478000  1.0 0.5462623806
Zn  Zn7  1  0.61249000  0.06121000  0.35522000  1.0 0.5462623806
Zn  Zn8  1  0.88751000  0.43879000  0.35522000  1.0 0.5462623806
H  H1  1  0.03940000  0.20090000  0.73340000  1.0 0.105374025
H  H2  1  0.46060000  0.29910000  0.73340000  1.0 0.105374025
H  H3  1  0.53940000  0.79910000  0.76660000  1.0 0.105374025
H  H4  1  0.96060000  0.70090000  0.76660000  1.0 0.105374025
H  H5  1  0.96060000  0.79910000  0.26660000  1.0 0.105374025
H  H6  1  0.53940000  0.70090000  0.26660000  1.0 0.105374025
H  H7  1  0.46060000  0.20090000  0.23340000  1.0 0.105374025
H  H8  1  0.03940000  0.29910000  0.23340000  1.0 0.105374025
H  H9  1  0.23930000  0.14840000  0.64560000  1.0 0.105374025
H  H10  1  0.26070000  0.35160000  0.64560000  1.0 0.105374025
H  H11  1  0.73930000  0.85160000  0.85440000  1.0 0.105374025
H  H12  1  0.76070000  0.64840000  0.85440000  1.0 0.105374025
H  H13  1  0.76070000  0.85160000  0.35440000  1.0 0.105374025
H  H14  1  0.73930000  0.64840000  0.35440000  1.0 0.105374025
H  H15  1  0.26070000  0.14840000  0.14560000  1.0 0.105374025
H  H16  1  0.23930000  0.35160000  0.14560000  1.0 0.105374025
H  H17  1  0.10210000  0.24830000  0.87930000  0.5 0.19917989
H  H18  1  0.39790000  0.25170000  0.87930000  0.5 0.19917989
H  H19  1  0.60210000  0.75170000  0.62070000  0.5 0.19917989
H  H20  1  0.89790000  0.74830000  0.62070000  0.5 0.19917989
H  H21  1  0.89790000  0.75170000  0.12070000  0.5 0.19917989
H  H22  1  0.60210000  0.74830000  0.12070000  0.5 0.19917989
H  H23  1  0.39790000  0.24830000  0.37930000  0.5 0.19917989
H  H24  1  0.10210000  0.25170000  0.37930000  0.5 0.19917989
H  H25  1  0.98670000  0.40190000  0.89810000  0.5 0.19917989
H  H26  1  0.51330000  0.09810000  0.89810000  0.5 0.19917989
H  H27  1  0.48670000  0.59810000  0.60190000  0.5 0.19917989
H  H28  1  0.01330000  0.90190000  0.60190000  0.5 0.19917989
H  H29  1  0.01330000  0.59810000  0.10190000  0.5 0.19917989
H  H30  1  0.48670000  0.90190000  0.10190000  0.5 0.19917989
H  H31  1  0.51330000  0.40190000  0.39810000  0.5 0.19917989
H  H32  1  0.98670000  0.09810000  0.39810000  0.5 0.19917989
H  H33  1  0.34690000  0.04760000  0.02920000  0.5 0.1899486608
H  H34  1  0.15310000  0.45240000  0.02920000  0.5 0.1899486608
H  H35  1  0.84690000  0.95240000  0.47080000  0.5 0.1899486608
H  H36  1  0.65310000  0.54760000  0.47080000  0.5 0.1899486608
H  H37  1  0.65310000  0.95240000  0.97080000  0.5 0.1899486608
H  H38  1  0.84690000  0.54760000  0.97080000  0.5 0.1899486608
H  H39  1  0.15310000  0.04760000  0.52920000  0.5 0.1899486608
H  H40  1  0.34690000  0.45240000  0.52920000  0.5 0.1899486608
H  H41  1  0.24970000  0.09710000  0.91110000  0.5 0.1899486608
H  H42  1  0.25030000  0.40290000  0.91110000  0.5 0.1899486608
H  H43  1  0.74970000  0.90290000  0.58890000  0.5 0.1844895527
H  H44  1  0.75030000  0.59710000  0.58890000  0.5 0.1844895527
H  H45  1  0.75030000  0.90290000  0.08890000  0.5 0.1844895527
H  H46  1  0.74970000  0.59710000  0.08890000  0.5 0.1899486608
H  H47  1  0.25030000  0.09710000  0.41110000  0.5 0.1899486608
H  H48  1  0.24970000  0.40290000  0.41110000  0.5 0.1899486608
C  C1  1  0.14150000  0.00400000  0.75230000  1.0 0.2240943991
C  C2  1  0.35850000  0.49600000  0.75230000  1.0 0.2240943991
C  C3  1  0.64150000  0.99600000  0.74770000  1.0 0.2240943991
C  C4  1  0.85850000  0.50400000  0.74770000  1.0 0.2240943991
C  C5  1  0.85850000  0.99600000  0.24770000  1.0 0.2240943991
C  C6  1  0.64150000  0.50400000  0.24770000  1.0 0.2240943991
C  C7  1  0.35850000  0.00400000  0.25230000  1.0 0.2240943991
C  C8  1  0.14150000  0.49600000  0.25230000  1.0 0.2240943991
C  C9  1  0.08460000  0.14120000  0.73140000  1.0 -0.1033611308
C  C10  1  0.41540000  0.35880000  0.73140000  1.0 -0.1033611308
C  C11  1  0.58460000  0.85880000  0.76860000  1.0 -0.1033611308
C  C12  1  0.91540000  0.64120000  0.76860000  1.0 -0.1033611308
C  C13  1  0.91540000  0.85880000  0.26860000  1.0 -0.1033611308
C  C14  1  0.58460000  0.64120000  0.26860000  1.0 -0.1033611308
C  C15  1  0.41540000  0.14120000  0.23140000  1.0 -0.1033611308
C  C16  1  0.08460000  0.35880000  0.23140000  1.0 -0.1033611308
C  C17  1  0.19440000  0.11200000  0.68240000  1.0 -0.1151235654
C  C18  1  0.30560000  0.38800000  0.68240000  1.0 -0.1151235654
C  C19  1  0.69440000  0.88800000  0.81760000  1.0 -0.1151235654
C  C20  1  0.80560000  0.61200000  0.81760000  1.0 -0.1151235654
C  C21  1  0.80560000  0.88800000  0.31760000  1.0 -0.1151235654
C  C22  1  0.69440000  0.61200000  0.31760000  1.0 -0.1151235654
C  C23  1  0.30560000  0.11200000  0.18240000  1.0 -0.1151235654
C  C24  1  0.19440000  0.38800000  0.18240000  1.0 -0.1151235654
C  C25  1  0.75000000  0.25000000  0.88300000  1.0 0.1242717848
C  C26  1  0.25000000  0.75000000  0.61700000  1.0 0.1252691046
C  C27  1  0.25000000  0.75000000  0.11700000  1.0 0.1252691046
C  C28  1  0.75000000  0.25000000  0.38300000  1.0 0.1242717848
C  C29  1  0.00000000  0.00000000  0.00000000  1.0 0.051193863
C  C30  1  0.50000000  0.50000000  0.00000000  1.0 0.051193863
C  C31  1  0.50000000  0.00000000  0.50000000  1.0 0.051193863
C  C32  1  0.00000000  0.50000000  0.50000000  1.0 0.051193863
C  C33  1  0.99260000  0.26130000  0.88420000  0.5 -0.086202576
C  C34  1  0.50740000  0.23870000  0.88420000  0.5 -0.0800772249
C  C35  1  0.49260000  0.73870000  0.61580000  0.5 -0.086202576
C  C36  1  0.00740000  0.76130000  0.61580000  0.5 -0.0800772249
C  C37  1  0.00740000  0.73870000  0.11580000  0.5 -0.086202576
C  C38  1  0.49260000  0.76130000  0.11580000  0.5 -0.086202576
C  C39  1  0.50740000  0.26130000  0.38420000  0.5 -0.086202576
C  C40  1  0.99260000  0.23870000  0.38420000  0.5 -0.086202576
C  C41  1  0.92940000  0.34650000  0.89100000  0.5 0.0683396299
C  C42  1  0.57060000  0.15350000  0.89100000  0.5 0.0683396299
C  C43  1  0.42940000  0.65350000  0.60900000  0.5 0.0683396299
C  C44  1  0.07060000  0.84650000  0.60900000  0.5 0.0683396299
C  C45  1  0.07060000  0.65350000  0.10900000  0.5 0.0683396299
C  C46  1  0.42940000  0.84650000  0.10900000  0.5 0.0683396299
C  C47  1  0.57060000  0.34650000  0.39100000  0.5 0.0683396299
C  C48  1  0.92940000  0.15350000  0.39100000  0.5 0.0683396299
C  C49  1  0.24300000  0.03940000  0.01130000  0.5 -0.0395105309
C  C50  1  0.25700000  0.46060000  0.01130000  0.5 -0.0341952627
C  C51  1  0.74300000  0.96060000  0.48870000  0.5 -0.0341952627
C  C52  1  0.75700000  0.53940000  0.48870000  0.5 -0.0341952627
C  C53  1  0.75700000  0.96060000  0.98870000  0.5 -0.0341952627
C  C54  1  0.74300000  0.53940000  0.98870000  0.5 -0.0341952627
C  C55  1  0.25700000  0.03940000  0.51130000  0.5 -0.0341952627
C  C56  1  0.24300000  0.46060000  0.51130000  0.5 -0.0341952627
C  C57  1  0.18900000  0.06650000  0.94630000  0.5 -0.0601687433
C  C58  1  0.31100000  0.43350000  0.94630000  0.5 -0.0601687433
C  C59  1  0.68900000  0.93350000  0.55370000  0.5 -0.0601687433
C  C60  1  0.81100000  0.56650000  0.55370000  0.5 -0.0601687433
C  C61  1  0.81100000  0.93350000  0.05370000  0.5 -0.0601687433
C  C62  1  0.68900000  0.56650000  0.05370000  0.5 -0.0601687433
C  C63  1  0.31100000  0.06650000  0.44630000  0.5 -0.0601687433
C  C64  1  0.18900000  0.43350000  0.44630000  0.5 -0.0601687433
N  N1  1  0.05180000  0.07200000  0.77570000  1.0 -0.4108742132
N  N2  1  0.44820000  0.42800000  0.77570000  1.0 -0.4108742132
N  N3  1  0.55180000  0.92800000  0.72430000  1.0 -0.4108742132
N  N4  1  0.94820000  0.57200000  0.72430000  1.0 -0.4108742132
N  N5  1  0.94820000  0.92800000  0.22430000  1.0 -0.4108742132
N  N6  1  0.55180000  0.57200000  0.22430000  1.0 -0.4108742132
N  N7  1  0.44820000  0.07200000  0.27570000  1.0 -0.4108742132
N  N8  1  0.05180000  0.42800000  0.27570000  1.0 -0.4108742132
N  N9  1  0.22740000  0.02230000  0.69550000  1.0 -0.434187214
N  N10  1  0.27260000  0.47770000  0.69550000  1.0 -0.434187214
N  N11  1  0.72740000  0.97770000  0.80450000  1.0 -0.434187214
N  N12  1  0.77260000  0.52230000  0.80450000  1.0 -0.434187214
N  N13  1  0.77260000  0.97770000  0.30450000  1.0 -0.434187214
N  N14  1  0.72740000  0.52230000  0.30450000  1.0 -0.434187214
N  N15  1  0.27260000  0.02230000  0.19550000  1.0 -0.434187214
N  N16  1  0.22740000  0.47770000  0.19550000  1.0 -0.434187214
N  N17  1  0.13870000  0.91360000  0.78470000  1.0 0.2982455426
N  N18  1  0.36130000  0.58640000  0.78470000  1.0 0.2982455426
N  N19  1  0.63870000  0.08640000  0.71530000  1.0 0.2982455426
N  N20  1  0.86130000  0.41360000  0.71530000  1.0 0.2982455426
N  N21  1  0.86130000  0.08640000  0.21530000  1.0 0.2982455426
N  N22  1  0.63870000  0.41360000  0.21530000  1.0 0.2982455426
N  N23  1  0.36130000  0.91360000  0.28470000  1.0 0.2982455426
N  N24  1  0.13870000  0.58640000  0.28470000  1.0 0.2982455426
N  N25  1  0.87310000  0.19580000  0.88540000  0.5 -0.1311520316
N  N26  1  0.62690000  0.30420000  0.88540000  0.5 -0.1311520316
N  N27  1  0.37310000  0.80420000  0.61460000  0.5 -0.1311520316
N  N28  1  0.12690000  0.69580000  0.61460000  0.5 -0.1311520316
N  N29  1  0.12690000  0.80420000  0.11460000  0.5 -0.1311520316
N  N30  1  0.37310000  0.69580000  0.11460000  0.5 -0.1311520316
N  N31  1  0.62690000  0.19580000  0.38540000  0.5 -0.1311520316
N  N32  1  0.87310000  0.30420000  0.38540000  0.5 -0.1311520316
N  N33  1  0.76640000  0.33860000  0.88590000  0.5 -0.1311520316
N  N34  1  0.73360000  0.16140000  0.88590000  0.5 -0.1311520316
N  N35  1  0.26640000  0.66140000  0.61410000  0.5 -0.1311520316
N  N36  1  0.23360000  0.83860000  0.61410000  0.5 -0.1311520316
N  N37  1  0.23360000  0.66140000  0.11410000  0.5 -0.1311520316
N  N38  1  0.26640000  0.83860000  0.11410000  0.5 -0.1311520316
N  N39  1  0.73360000  0.33860000  0.38590000  0.5 -0.1311520316
N  N40  1  0.76640000  0.16140000  0.38590000  0.5 -0.1311520316
N  N41  1  0.58840000  0.20780000  0.88140000  0.5 0.19917989
N  N42  1  0.91160000  0.29220000  0.88140000  0.5 0.19917989
N  N43  1  0.08840000  0.79220000  0.61860000  0.5 0.19917989
N  N44  1  0.41160000  0.70780000  0.61860000  0.5 0.19917989
N  N45  1  0.41160000  0.79220000  0.11860000  0.5 0.19917989
N  N46  1  0.08840000  0.70780000  0.11860000  0.5 0.19917989
N  N47  1  0.91160000  0.20780000  0.38140000  0.5 0.19917989
N  N48  1  0.58840000  0.29220000  0.38140000  0.5 0.19917989
N  N49  1  0.03150000  0.04250000  0.93960000  0.5 -0.1079416258
N  N50  1  0.46850000  0.45750000  0.93960000  0.5 -0.1079416258
N  N51  1  0.53150000  0.95750000  0.56040000  0.5 -0.1079416258
N  N52  1  0.96850000  0.54250000  0.56040000  0.5 -0.1079416258
N  N53  1  0.96850000  0.95750000  0.06040000  0.5 -0.1079416258
N  N54  1  0.53150000  0.54250000  0.06040000  0.5 -0.1079416258
N  N55  1  0.46850000  0.04250000  0.43960000  0.5 -0.1079416258
N  N56  1  0.03150000  0.45750000  0.43960000  0.5 -0.1079416258
N  N57  1  0.84230000  0.96590000  0.01620000  0.5 0.19917989
N  N58  1  0.65770000  0.53410000  0.01620000  0.5 0.19917989
N  N59  1  0.34230000  0.03410000  0.48380000  0.5 0.19917989
N  N60  1  0.15770000  0.46590000  0.48380000  0.5 0.19917989
N  N61  1  0.15770000  0.03410000  0.98380000  0.5 0.19917989
N  N62  1  0.34230000  0.46590000  0.98380000  0.5 0.19917989
N  N63  1  0.65770000  0.96590000  0.51620000  0.5 0.19917989
N  N64  1  0.84230000  0.53410000  0.51620000  0.5 0.19917989
N  N65  1  0.11970000  0.99810000  0.04600000  0.5 -0.1079416258
N  N66  1  0.38030000  0.50190000  0.04600000  0.5 -0.1079416258
N  N67  1  0.61970000  0.00190000  0.45400000  0.5 -0.1079416258
N  N68  1  0.88030000  0.49810000  0.45400000  0.5 -0.1079416258
N  N69  1  0.88030000  0.00190000  0.95400000  0.5 -0.1079416258
N  N70  1  0.61970000  0.49810000  0.95400000  0.5 -0.1079416258
N  N71  1  0.38030000  0.99810000  0.54600000  0.5 -0.1079416258
N  N72  1  0.11970000  0.50190000  0.54600000  0.5 -0.1079416258
O  O1  1  0.05210000  0.90250000  0.83610000  1.0 -0.3501818321
O  O2  1  0.44790000  0.59750000  0.83610000  1.0 -0.3501818321
O  O3  1  0.55210000  0.09750000  0.66390000  1.0 -0.3501818321
O  O4  1  0.94790000  0.40250000  0.66390000  1.0 -0.3501818321
O  O5  1  0.94790000  0.09750000  0.16390000  1.0 -0.3501818321
O  O6  1  0.55210000  0.40250000  0.16390000  1.0 -0.3501818321
O  O7  1  0.44790000  0.90250000  0.33610000  1.0 -0.3501818321
O  O8  1  0.05210000  0.59750000  0.33610000  1.0 -0.3501818321
O  O9  1  0.22340000  0.85450000  0.75990000  1.0 -0.3280542969
O  O10  1  0.27660000  0.64550000  0.75990000  1.0 -0.3280542969
O  O11  1  0.72340000  0.14550000  0.74010000  1.0 -0.3280542969
O  O12  1  0.77660000  0.35450000  0.74010000  1.0 -0.3280542969
O  O13  1  0.77660000  0.14550000  0.24010000  1.0 -0.3280542969
O  O14  1  0.72340000  0.35450000  0.24010000  1.0 -0.3280542969
O  O15  1  0.27660000  0.85450000  0.25990000  1.0 -0.3280542969
O  O16  1  0.22340000  0.64550000  0.25990000  1.0 -0.3280542969
O  O17  1  0.57990000  0.12350000  0.88090000  0.5 -0.0514743655
O  O18  1  0.92010000  0.37650000  0.88090000  0.5 -0.0514743655
O  O19  1  0.07990000  0.87650000  0.61910000  0.5 -0.0514743655
O  O20  1  0.42010000  0.62350000  0.61910000  0.5 -0.0514743655
O  O21  1  0.42010000  0.87650000  0.11910000  0.5 -0.0514743655
O  O22  1  0.07990000  0.62350000  0.11910000  0.5 -0.0514743655
O  O23  1  0.92010000  0.12350000  0.38090000  0.5 -0.0514743655
O  O24  1  0.57990000  0.37650000  0.38090000  0.5 -0.0514743655
O  O25  1  0.47550000  0.26090000  0.87910000  0.5 -0.0800772249
O  O26  1  0.02450000  0.23910000  0.87910000  0.5 -0.0800772249
O  O27  1  0.97550000  0.73910000  0.62090000  0.5 -0.0800772249
O  O28  1  0.52450000  0.76090000  0.62090000  0.5 -0.0800772249
O  O29  1  0.52450000  0.73910000  0.12090000  0.5 -0.0800772249
O  O30  1  0.97550000  0.76090000  0.12090000  0.5 -0.0800772249
O  O31  1  0.02450000  0.26090000  0.37910000  0.5 -0.0800772249
O  O32  1  0.47550000  0.23910000  0.37910000  0.5 -0.0800772249
O  O33  1  0.82900000  0.92970000  0.07520000  0.5 -0.0395105309
O  O34  1  0.67100000  0.57030000  0.07520000  0.5 -0.0395105309
O  O35  1  0.32900000  0.07030000  0.42480000  0.5 -0.0395105309
O  O36  1  0.17100000  0.42970000  0.42480000  0.5 -0.0395105309
O  O37  1  0.17100000  0.07030000  0.92480000  0.5 -0.0395105309
O  O38  1  0.32900000  0.42970000  0.92480000  0.5 -0.0395105309
O  O39  1  0.67100000  0.92970000  0.57520000  0.5 -0.0395105309
O  O40  1  0.82900000  0.57030000  0.57520000  0.5 -0.0395105309
O  O41  1  0.74400000  0.97400000  0.96900000  0.5 -0.0395105309
O  O42  1  0.75600000  0.52600000  0.96900000  0.5 -0.0395105309
O  O43  1  0.24400000  0.02600000  0.53100000  0.5 -0.0395105309
O  O44  1  0.25600000  0.47400000  0.53100000  0.5 -0.0395105309
O  O45  1  0.25600000  0.02600000  0.03100000  0.5 -0.0395105309
O  O46  1  0.24400000  0.47400000  0.03100000  0.5 -0.0395105309
O  O47  1  0.75600000  0.97400000  0.46900000  0.5 -0.0395105309
O  O48  1  0.74400000  0.52600000  0.46900000  0.5 -0.0395105309
