# DDEC6 charges by PACMAN v1.1 (https://github.com/mtap-research/PACMAN-charge/)
data_d3qi01092a2_4_FSR_pacman
_symmetry_space_group_name_H-M   'P 1'
_cell_length_a   14.96790000
_cell_length_b   14.96790000
_cell_length_c   9.67870000
_cell_angle_alpha   90.00000000
_cell_angle_beta   90.00000000
_cell_angle_gamma   90.00000000
_symmetry_Int_Tables_number   1
_chemical_formula_structural   ZnH6C7(N2O)2
_chemical_formula_sum   'Zn8 H48.0 C56 N32 O16.0'
_cell_volume   2168.39688493
_cell_formula_units_Z   8
loop_
 _symmetry_equiv_pos_site_id
 _symmetry_equiv_pos_as_xyz
  1  'x, y, z'
loop_
 _atom_site_type_symbol
 _atom_site_label
 _atom_site_symmetry_multiplicity
 _atom_site_fract_x
 _atom_site_fract_y
 _atom_site_fract_z
 _atom_site_occupancy
 _atom_site_charge
Zn  Zn1  1  0.82074000  0.34322000  0.45388000  1.0 0.6240387979
Zn  Zn2  1  0.17926000  0.65678000  0.45388000  1.0 0.6240387979
Zn  Zn3  1  0.34322000  0.17926000  0.54612000  1.0 0.6240387979
Zn  Zn4  1  0.65678000  0.82074000  0.54612000  1.0 0.6240387979
Zn  Zn5  1  0.32074000  0.84322000  0.95388000  1.0 0.6240387979
Zn  Zn6  1  0.67926000  0.15678000  0.95388000  1.0 0.6240387979
Zn  Zn7  1  0.84322000  0.67926000  0.04612000  1.0 0.6240387979
Zn  Zn8  1  0.15678000  0.32074000  0.04612000  1.0 0.6240387979
H  H1  1  0.81120000  0.23870000  0.73430000  1.0 0.1199110496
H  H2  1  0.18880000  0.76130000  0.73430000  1.0 0.1199110496
H  H3  1  0.23870000  0.18880000  0.26570000  1.0 0.1199110496
H  H4  1  0.76130000  0.81120000  0.26570000  1.0 0.1199110496
H  H5  1  0.31120000  0.73870000  0.23430000  1.0 0.1199110496
H  H6  1  0.68880000  0.26130000  0.23430000  1.0 0.1199110496
H  H7  1  0.73870000  0.68880000  0.76570000  1.0 0.1199110496
H  H8  1  0.26130000  0.31120000  0.76570000  1.0 0.1199110496
H  H9  1  0.49570000  0.16820000  0.74520000  1.0 0.1199110496
H  H10  1  0.50430000  0.83180000  0.74520000  1.0 0.1199110496
H  H11  1  0.16820000  0.50430000  0.25480000  1.0 0.1199110496
H  H12  1  0.83180000  0.49570000  0.25480000  1.0 0.1199110496
H  H13  1  0.99570000  0.66820000  0.24520000  1.0 0.1199110496
H  H14  1  0.00430000  0.33180000  0.24520000  1.0 0.1199110496
H  H15  1  0.66820000  0.00430000  0.75480000  1.0 0.1199110496
H  H16  1  0.33180000  0.99570000  0.75480000  1.0 0.1199110496
H  H17  1  0.47290000  0.29340000  0.38830000  1.0 0.1125469032
H  H18  1  0.52710000  0.70660000  0.38830000  1.0 0.1125469032
H  H19  1  0.29340000  0.52710000  0.61170000  1.0 0.1125469032
H  H20  1  0.70660000  0.47290000  0.61170000  1.0 0.1125469032
H  H21  1  0.97290000  0.79340000  0.88830000  1.0 0.1125469032
H  H22  1  0.02710000  0.20660000  0.88830000  1.0 0.1125469032
H  H23  1  0.79340000  0.02710000  0.11170000  1.0 0.1125469032
H  H24  1  0.20660000  0.97290000  0.11170000  1.0 0.1125469032
H  H49  1  0.09680000  0.31600000  0.61180000  0.31 0.0903848793
H  H50  1  0.90320000  0.68400000  0.61180000  0.31 0.0903848793
H  H51  1  0.31600000  0.90320000  0.38820000  0.31 0.0903848793
H  H52  1  0.68400000  0.09680000  0.38820000  0.31 0.0903848793
H  H53  1  0.59680000  0.81600000  0.11180000  0.31 0.0903848793
H  H54  1  0.40320000  0.18400000  0.11180000  0.31 0.0903848793
H  H55  1  0.81600000  0.40320000  0.88820000  0.31 0.0903848793
H  H56  1  0.18400000  0.59680000  0.88820000  0.31 0.0903848793
H  H57  1  0.06640000  0.37630000  0.74000000  0.31 0.0973773199
H  H58  1  0.93360000  0.62370000  0.74000000  0.31 0.0973773199
H  H59  1  0.37630000  0.93360000  0.26000000  0.31 0.0973773199
H  H60  1  0.62370000  0.06640000  0.26000000  0.31 0.0973773199
H  H61  1  0.56640000  0.87630000  0.24000000  0.31 0.0973773199
H  H62  1  0.43360000  0.12370000  0.24000000  0.31 0.0973773199
H  H63  1  0.87630000  0.43360000  0.76000000  0.31 0.0973773199
H  H64  1  0.12370000  0.56640000  0.76000000  0.31 0.0973773199
H  H65  1  0.11110000  0.42200000  0.60730000  0.31 0.0903848793
H  H66  1  0.88890000  0.57800000  0.60730000  0.31 0.0903848793
H  H67  1  0.42200000  0.88890000  0.39270000  0.31 0.0903848793
H  H68  1  0.57800000  0.11110000  0.39270000  0.31 0.0903848793
H  H69  1  0.61110000  0.92200000  0.10730000  0.31 0.0903848793
H  H70  1  0.38890000  0.07800000  0.10730000  0.31 0.0903848793
H  H71  1  0.92200000  0.38890000  0.89270000  0.31 0.0903848793
H  H72  1  0.07800000  0.61110000  0.89270000  0.31 0.0903848793
H  H25  1  0.06970000  0.30110000  0.70850000  0.69 0.0688610795
H  H26  1  0.93030000  0.69890000  0.70850000  0.69 0.0688610795
H  H27  1  0.30110000  0.93030000  0.29150000  0.69 0.0688610795
H  H28  1  0.69890000  0.06970000  0.29150000  0.69 0.0688610795
H  H29  1  0.56970000  0.80110000  0.20850000  0.69 0.0688610795
H  H30  1  0.43030000  0.19890000  0.20850000  0.69 0.0688610795
H  H31  1  0.80110000  0.43030000  0.79150000  0.69 0.0688610795
H  H32  1  0.19890000  0.56970000  0.79150000  0.69 0.0688610795
H  H33  1  0.08780000  0.37990000  0.60020000  0.69 0.0760997731
H  H34  1  0.91220000  0.62010000  0.60020000  0.69 0.0760997731
H  H35  1  0.37990000  0.91220000  0.39980000  0.69 0.0760997731
H  H36  1  0.62010000  0.08780000  0.39980000  0.69 0.0760997731
H  H37  1  0.58780000  0.87990000  0.10020000  0.69 0.0760997731
H  H38  1  0.41220000  0.12010000  0.10020000  0.69 0.0760997731
H  H39  1  0.87990000  0.41220000  0.89980000  0.69 0.0760997731
H  H40  1  0.12010000  0.58780000  0.89980000  0.69 0.0760997731
H  H41  1  0.10480000  0.27820000  0.55640000  0.69 0.1125469032
H  H42  1  0.89520000  0.72180000  0.55640000  0.69 0.1125469032
H  H43  1  0.27820000  0.89520000  0.44360000  0.69 0.1125469032
H  H44  1  0.72180000  0.10480000  0.44360000  0.69 0.1125469032
H  H45  1  0.60480000  0.77820000  0.05640000  0.69 0.1125469032
H  H46  1  0.39520000  0.22180000  0.05640000  0.69 0.1125469032
H  H47  1  0.77820000  0.39520000  0.94360000  0.69 0.1125469032
H  H48  1  0.22180000  0.60480000  0.94360000  0.69 0.1125469032
C  C1  1  0.75240000  0.24180000  0.69750000  1.0 0.1437938411
C  C2  1  0.24760000  0.75820000  0.69750000  1.0 0.1437938411
C  C3  1  0.24180000  0.24760000  0.30250000  1.0 0.1437938411
C  C4  1  0.75820000  0.75240000  0.30250000  1.0 0.1437938411
C  C5  1  0.25240000  0.74180000  0.19750000  1.0 0.1437938411
C  C6  1  0.74760000  0.25820000  0.19750000  1.0 0.1437938411
C  C7  1  0.74180000  0.74760000  0.80250000  1.0 0.1437938411
C  C8  1  0.25820000  0.25240000  0.80250000  1.0 0.1437938411
C  C9  1  0.61000000  0.22360000  0.67520000  1.0 0.0597351316
C  C10  1  0.39000000  0.77640000  0.67520000  1.0 0.0597351316
C  C11  1  0.22360000  0.39000000  0.32480000  1.0 0.0597351316
C  C12  1  0.77640000  0.61000000  0.32480000  1.0 0.0597351316
C  C13  1  0.11000000  0.72360000  0.17520000  1.0 0.0597351316
C  C14  1  0.89000000  0.27640000  0.17520000  1.0 0.0597351316
C  C15  1  0.72360000  0.89000000  0.82480000  1.0 0.0597351316
C  C16  1  0.27640000  0.11000000  0.82480000  1.0 0.0597351316
C  C17  1  0.52160000  0.20220000  0.67260000  1.0 0.0130979138
C  C18  1  0.47840000  0.79780000  0.67260000  1.0 0.0130979138
C  C19  1  0.20220000  0.47840000  0.32740000  1.0 0.0130979138
C  C20  1  0.79780000  0.52160000  0.32740000  1.0 0.0130979138
C  C21  1  0.02160000  0.70220000  0.17260000  1.0 0.0130979138
C  C22  1  0.97840000  0.29780000  0.17260000  1.0 0.0130979138
C  C23  1  0.70220000  0.97840000  0.82740000  1.0 0.0130979138
C  C24  1  0.29780000  0.02160000  0.82740000  1.0 0.0130979138
C  C25  1  0.51060000  0.27610000  0.46250000  1.0 0.1836667928
C  C26  1  0.48940000  0.72390000  0.46250000  1.0 0.1836667928
C  C27  1  0.27610000  0.48940000  0.53750000  1.0 0.1836667928
C  C28  1  0.72390000  0.51060000  0.53750000  1.0 0.1836667928
C  C29  1  0.01060000  0.77610000  0.96250000  1.0 0.1836667928
C  C30  1  0.98940000  0.22390000  0.96250000  1.0 0.1836667928
C  C31  1  0.77610000  0.98940000  0.03750000  1.0 0.1836667928
C  C32  1  0.22390000  0.01060000  0.03750000  1.0 0.1836667928
C  C33  1  0.64440000  0.27160000  0.55840000  1.0 0.26420818
C  C34  1  0.35560000  0.72840000  0.55840000  1.0 0.26420818
C  C35  1  0.27160000  0.35560000  0.44160000  1.0 0.26420818
C  C36  1  0.72840000  0.64440000  0.44160000  1.0 0.26420818
C  C37  1  0.14440000  0.77160000  0.05840000  1.0 0.26420818
C  C38  1  0.85560000  0.22840000  0.05840000  1.0 0.26420818
C  C39  1  0.77160000  0.85560000  0.94160000  1.0 0.26420818
C  C40  1  0.22840000  0.14440000  0.94160000  1.0 0.26420818
C  C57  1  0.97890000  0.38500000  0.57400000  0.31 0.3080333296
C  C58  1  0.02110000  0.61500000  0.57400000  0.31 0.3080333296
C  C59  1  0.38500000  0.02110000  0.42600000  0.31 0.3080333296
C  C60  1  0.61500000  0.97890000  0.42600000  0.31 0.3080333296
C  C61  1  0.47890000  0.88500000  0.07400000  0.31 0.3080333296
C  C62  1  0.52110000  0.11500000  0.07400000  0.31 0.3080333296
C  C63  1  0.88500000  0.52110000  0.92600000  0.31 0.3080333296
C  C64  1  0.11500000  0.47890000  0.92600000  0.31 0.3080333296
C  C65  1  0.07170000  0.37400000  0.63900000  0.31 -0.2096452143
C  C66  1  0.92830000  0.62600000  0.63900000  0.31 -0.2096452143
C  C67  1  0.37400000  0.92830000  0.36100000  0.31 -0.2096452143
C  C68  1  0.62600000  0.07170000  0.36100000  0.31 -0.2096452143
C  C69  1  0.57170000  0.87400000  0.13900000  0.31 -0.2096452143
C  C70  1  0.42830000  0.12600000  0.13900000  0.31 -0.2096452143
C  C71  1  0.87400000  0.42830000  0.86100000  0.31 -0.2096452143
C  C72  1  0.12600000  0.57170000  0.86100000  0.31 -0.2096452143
C  C41  1  0.96800000  0.31110000  0.55900000  0.69 0.2799410942
C  C42  1  0.03200000  0.68890000  0.55900000  0.69 0.2799410942
C  C43  1  0.31110000  0.03200000  0.44100000  0.69 0.2799410942
C  C44  1  0.68890000  0.96800000  0.44100000  0.69 0.2799410942
C  C45  1  0.46800000  0.81110000  0.05900000  0.69 0.2799410942
C  C46  1  0.53200000  0.18890000  0.05900000  0.69 0.2799410942
C  C47  1  0.81110000  0.53200000  0.94100000  0.69 0.2799410942
C  C48  1  0.18890000  0.46800000  0.94100000  0.69 0.2799410942
C  C49  1  0.06680000  0.31820000  0.61100000  0.69 -0.1865374622
C  C50  1  0.93320000  0.68180000  0.61100000  0.69 -0.1865374622
C  C51  1  0.31820000  0.93320000  0.38900000  0.69 -0.1865374622
C  C52  1  0.68180000  0.06680000  0.38900000  0.69 -0.1865374622
C  C53  1  0.56680000  0.81820000  0.11100000  0.69 -0.1865374622
C  C54  1  0.43320000  0.18180000  0.11100000  0.69 -0.1865374622
C  C55  1  0.81820000  0.43320000  0.88900000  0.69 -0.1865374622
C  C56  1  0.18180000  0.56680000  0.88900000  0.69 -0.1865374622
N  N1  1  0.47180000  0.22980000  0.56630000  1.0 -0.2972194654
N  N2  1  0.52820000  0.77020000  0.56630000  1.0 -0.2972194654
N  N3  1  0.22980000  0.52820000  0.43370000  1.0 -0.2972194654
N  N4  1  0.77020000  0.47180000  0.43370000  1.0 -0.2972194654
N  N5  1  0.97180000  0.72980000  0.06630000  1.0 -0.2972194654
N  N6  1  0.02820000  0.27020000  0.06630000  1.0 -0.2972194654
N  N7  1  0.72980000  0.02820000  0.93370000  1.0 -0.2972194654
N  N8  1  0.27020000  0.97180000  0.93370000  1.0 -0.2972194654
N  N9  1  0.59520000  0.29960000  0.45320000  1.0 -0.3307182629
N  N10  1  0.40480000  0.70040000  0.45320000  1.0 -0.3307182629
N  N11  1  0.29960000  0.40480000  0.54680000  1.0 -0.3307182629
N  N12  1  0.70040000  0.59520000  0.54680000  1.0 -0.3307182629
N  N13  1  0.09520000  0.79960000  0.95320000  1.0 -0.3307182629
N  N14  1  0.90480000  0.20040000  0.95320000  1.0 -0.3307182629
N  N15  1  0.79960000  0.90480000  0.04680000  1.0 -0.3307182629
N  N16  1  0.20040000  0.09520000  0.04680000  1.0 -0.3307182629
N  N17  1  0.67980000  0.20570000  0.76210000  1.0 -0.3307182629
N  N18  1  0.32020000  0.79430000  0.76210000  1.0 -0.3307182629
N  N19  1  0.20570000  0.32020000  0.23790000  1.0 -0.3307182629
N  N20  1  0.79430000  0.67980000  0.23790000  1.0 -0.3307182629
N  N21  1  0.17980000  0.70570000  0.26210000  1.0 -0.3307182629
N  N22  1  0.82020000  0.29430000  0.26210000  1.0 -0.3307182629
N  N23  1  0.70570000  0.82020000  0.73790000  1.0 -0.3307182629
N  N24  1  0.29430000  0.17980000  0.73790000  1.0 -0.3307182629
N  N25  1  0.73350000  0.28170000  0.57820000  1.0 -0.3767432448
N  N26  1  0.26650000  0.71830000  0.57820000  1.0 -0.3767432448
N  N27  1  0.28170000  0.26650000  0.42180000  1.0 -0.3767432448
N  N28  1  0.71830000  0.73350000  0.42180000  1.0 -0.3767432448
N  N29  1  0.23350000  0.78170000  0.07820000  1.0 -0.3767432448
N  N30  1  0.76650000  0.21830000  0.07820000  1.0 -0.3767432448
N  N31  1  0.78170000  0.76650000  0.92180000  1.0 -0.3767432448
N  N32  1  0.21830000  0.23350000  0.92180000  1.0 -0.3767432448
O  O17  1  0.91480000  0.37200000  0.65300000  0.31 -0.2907437411
O  O18  1  0.08520000  0.62800000  0.65300000  0.31 -0.2907437411
O  O19  1  0.37200000  0.08520000  0.34700000  0.31 -0.2907437411
O  O20  1  0.62800000  0.91480000  0.34700000  0.31 -0.2907437411
O  O21  1  0.41480000  0.87200000  0.15300000  0.31 -0.2907437411
O  O22  1  0.58520000  0.12800000  0.15300000  0.31 -0.2907437411
O  O23  1  0.87200000  0.58520000  0.84700000  0.31 -0.2907437411
O  O24  1  0.12800000  0.41480000  0.84700000  0.31 -0.2907437411
O  O25  1  0.97860000  0.41900000  0.45600000  0.31 -0.270025595
O  O26  1  0.02140000  0.58100000  0.45600000  0.31 -0.270025595
O  O27  1  0.41900000  0.02140000  0.54400000  0.31 -0.270025595
O  O28  1  0.58100000  0.97860000  0.54400000  0.31 -0.270025595
O  O29  1  0.47860000  0.91900000  0.95600000  0.31 -0.270025595
O  O30  1  0.52140000  0.08100000  0.95600000  0.31 -0.270025595
O  O31  1  0.91900000  0.52140000  0.04400000  0.31 -0.270025595
O  O32  1  0.08100000  0.47860000  0.04400000  0.31 -0.270025595
O  O1  1  0.93860000  0.38250000  0.51130000  0.69 0.0130979138
O  O2  1  0.06140000  0.61750000  0.51130000  0.69 0.0130979138
O  O3  1  0.38250000  0.06140000  0.48870000  0.69 0.0130979138
O  O4  1  0.61750000  0.93860000  0.48870000  0.69 0.0130979138
O  O5  1  0.43860000  0.88250000  0.01130000  0.69 0.0130979138
O  O6  1  0.56140000  0.11750000  0.01130000  0.69 0.0130979138
O  O7  1  0.88250000  0.56140000  0.98870000  0.69 0.0130979138
O  O8  1  0.11750000  0.43860000  0.98870000  0.69 0.0130979138
O  O9  1  0.94430000  0.23310000  0.53400000  0.69 -0.4852855828
O  O10  1  0.05570000  0.76690000  0.53400000  0.69 -0.4852855828
O  O11  1  0.23310000  0.05570000  0.46600000  0.69 -0.4852855828
O  O12  1  0.76690000  0.94430000  0.46600000  0.69 -0.4852855828
O  O13  1  0.44430000  0.73310000  0.03400000  0.69 -0.4852855828
O  O14  1  0.55570000  0.26690000  0.03400000  0.69 -0.4852855828
O  O15  1  0.73310000  0.55570000  0.96600000  0.69 -0.4852855828
O  O16  1  0.26690000  0.44430000  0.96600000  0.69 -0.4852855828
