# DDEC6 charges by PACMAN v1.1 (https://github.com/mtap-research/PACMAN-charge/)
data_an9b01088_si_002_ASR_pacman
_symmetry_space_group_name_H-M   'P 1'
_cell_length_a   9.62560000
_cell_length_b   21.28430000
_cell_length_c   15.46270000
_cell_angle_alpha   90.00000000
_cell_angle_beta   90.00000000
_cell_angle_gamma   90.00000000
_symmetry_Int_Tables_number   1
_chemical_formula_structural   ZnH16C32S2(NO2)4
_chemical_formula_sum   'Zn4 H64 C128 S8 N16 O32'
_cell_volume   3167.90764414
_cell_formula_units_Z   4
loop_
 _symmetry_equiv_pos_site_id
 _symmetry_equiv_pos_as_xyz
  1  'x, y, z'
loop_
 _atom_site_type_symbol
 _atom_site_label
 _atom_site_symmetry_multiplicity
 _atom_site_fract_x
 _atom_site_fract_y
 _atom_site_fract_z
 _atom_site_occupancy
 _atom_site_charge
Zn  Zn1  1  0.50000000  0.00000000  0.25000000  1.0 0.896538176
Zn  Zn2  1  0.50000000  0.00000000  0.75000000  1.0 0.896538176
Zn  Zn3  1  0.00000000  0.50000000  0.75000000  1.0 0.896538176
Zn  Zn4  1  0.00000000  0.50000000  0.25000000  1.0 0.896538176
H  H1  1  0.10920000  0.83120000  0.12940000  1.0 0.1171509914
H  H3  1  0.04310000  0.70200000  0.87280000  1.0 0.1171509914
H  H4  1  0.18200000  0.61450000  0.87010000  1.0 0.1272466454
H  H5  1  0.89080000  0.16880000  0.12940000  1.0 0.1171509914
H  H7  1  0.95690000  0.29800000  0.87280000  1.0 0.1171509914
H  H8  1  0.81800000  0.38550000  0.87010000  1.0 0.1272466454
H  H9  1  0.89080000  0.83120000  0.37060000  1.0 0.1171509914
H  H11  1  0.95690000  0.70200000  0.62720000  1.0 0.1171509914
H  H12  1  0.81800000  0.61450000  0.62990000  1.0 0.1272466454
H  H13  1  0.10920000  0.16880000  0.37060000  1.0 0.1171509914
H  H15  1  0.04310000  0.29800000  0.62720000  1.0 0.1171509914
H  H16  1  0.18200000  0.38550000  0.62990000  1.0 0.1272466454
H  H17  1  0.89080000  0.16880000  0.87060000  1.0 0.1171509914
H  H19  1  0.95690000  0.29800000  0.12720000  1.0 0.1171509914
H  H20  1  0.81800000  0.38550000  0.12990000  1.0 0.1272466454
H  H21  1  0.10920000  0.83120000  0.87060000  1.0 0.1171509914
H  H23  1  0.04310000  0.70200000  0.12720000  1.0 0.1171509914
H  H24  1  0.18200000  0.61450000  0.12990000  1.0 0.1272466454
H  H25  1  0.10920000  0.16880000  0.62940000  1.0 0.1171509914
H  H27  1  0.04310000  0.29800000  0.37280000  1.0 0.1171509914
H  H28  1  0.18200000  0.38550000  0.37010000  1.0 0.1272466454
H  H29  1  0.89080000  0.83120000  0.62940000  1.0 0.1171509914
H  H31  1  0.95690000  0.70200000  0.37280000  1.0 0.1171509914
H  H32  1  0.81800000  0.61450000  0.37010000  1.0 0.1272466454
H  H33  1  0.38180000  0.93870000  0.00000000  1.0 0.1272466454
H  H34  1  0.61820000  0.06130000  0.00000000  1.0 0.1272466454
H  H35  1  0.61820000  0.93870000  0.50000000  1.0 0.1272466454
H  H36  1  0.38180000  0.06130000  0.50000000  1.0 0.1272466454
H  H37  1  0.60920000  0.33120000  0.62940000  1.0 0.1171509914
H  H39  1  0.54310000  0.20200000  0.37280000  1.0 0.1171509914
H  H40  1  0.68200000  0.11450000  0.37010000  1.0 0.1272466454
H  H41  1  0.39080000  0.66880000  0.62940000  1.0 0.1171509914
H  H43  1  0.45690000  0.79800000  0.37280000  1.0 0.1171509914
H  H44  1  0.31800000  0.88550000  0.37010000  1.0 0.1272466454
H  H45  1  0.39080000  0.33120000  0.87060000  1.0 0.1171509914
H  H47  1  0.45690000  0.20200000  0.12720000  1.0 0.1171509914
H  H48  1  0.31800000  0.11450000  0.12990000  1.0 0.1272466454
H  H49  1  0.60920000  0.66880000  0.87060000  1.0 0.1171509914
H  H51  1  0.54310000  0.79800000  0.12720000  1.0 0.1171509914
H  H52  1  0.68200000  0.88550000  0.12990000  1.0 0.1272466454
H  H53  1  0.39080000  0.66880000  0.37060000  1.0 0.1171509914
H  H55  1  0.45690000  0.79800000  0.62720000  1.0 0.1171509914
H  H56  1  0.31800000  0.88550000  0.62990000  1.0 0.1272466454
H  H57  1  0.60920000  0.33120000  0.37060000  1.0 0.1171509914
H  H59  1  0.54310000  0.20200000  0.62720000  1.0 0.1171509914
H  H60  1  0.68200000  0.11450000  0.62990000  1.0 0.1272466454
H  H61  1  0.60920000  0.66880000  0.12940000  1.0 0.1171509914
H  H63  1  0.54310000  0.79800000  0.87280000  1.0 0.1171509914
H  H64  1  0.68200000  0.88550000  0.87010000  1.0 0.1272466454
H  H65  1  0.39080000  0.33120000  0.12940000  1.0 0.1171509914
H  H67  1  0.45690000  0.20200000  0.87280000  1.0 0.1171509914
H  H68  1  0.31800000  0.11450000  0.87010000  1.0 0.1272466454
H  H69  1  0.88180000  0.43870000  0.50000000  1.0 0.1272466454
H  H70  1  0.11820000  0.56130000  0.50000000  1.0 0.1272466454
H  H71  1  0.11820000  0.43870000  0.00000000  1.0 0.1272466454
H  H72  1  0.88180000  0.56130000  0.00000000  1.0 0.1272466454
H  H2  1  0.91700000  0.78060000  0.05090000  0.5 0.1272466454
H  H6  1  0.08300000  0.21940000  0.05090000  0.5 0.1272466454
H  H10  1  0.08300000  0.78060000  0.44910000  0.5 0.1272466454
H  H14  1  0.91700000  0.21940000  0.44910000  0.5 0.1272466454
H  H18  1  0.08300000  0.21940000  0.94910000  0.5 0.1272466454
H  H22  1  0.91700000  0.78060000  0.94910000  0.5 0.1272466454
H  H26  1  0.91700000  0.21940000  0.55090000  0.5 0.1272466454
H  H30  1  0.08300000  0.78060000  0.55090000  0.5 0.1272466454
H  H38  1  0.41700000  0.28060000  0.55090000  0.5 0.1272466454
H  H42  1  0.58300000  0.71940000  0.55090000  0.5 0.1272466454
H  H46  1  0.58300000  0.28060000  0.94910000  0.5 0.1272466454
H  H50  1  0.41700000  0.71940000  0.94910000  0.5 0.1272466454
H  H54  1  0.58300000  0.71940000  0.44910000  0.5 0.1272466454
H  H58  1  0.41700000  0.28060000  0.44910000  0.5 0.1272466454
H  H62  1  0.41700000  0.71940000  0.05090000  0.5 0.1272466454
H  H66  1  0.58300000  0.28060000  0.05090000  0.5 0.1272466454
C  C1  1  0.31470000  0.90999000  0.16350000  1.0 0.4582426757
C  C2  1  0.25580000  0.88788000  0.07790000  1.0 -0.1027589092
C  C3  1  0.14580000  0.84544000  0.07732000  1.0 -0.2229029542
C  C4  1  0.07540000  0.68505000  0.92439000  1.0 0.0318284588
C  C5  1  0.15890000  0.63318000  0.92253000  1.0 -0.1862893343
C  C6  1  0.68530000  0.09001000  0.16350000  1.0 0.4582426757
C  C7  1  0.74420000  0.11212000  0.07790000  1.0 -0.1027589092
C  C8  1  0.85420000  0.15456000  0.07732000  1.0 -0.2229029542
C  C9  1  0.92460000  0.31495000  0.92439000  1.0 0.0318284588
C  C10  1  0.84110000  0.36682000  0.92253000  1.0 -0.1862893343
C  C11  1  0.68530000  0.90999000  0.33650000  1.0 0.4582426757
C  C12  1  0.74420000  0.88788000  0.42210000  1.0 -0.1027589092
C  C13  1  0.85420000  0.84544000  0.42268000  1.0 -0.2229029542
C  C14  1  0.92460000  0.68505000  0.57561000  1.0 0.0318284588
C  C15  1  0.84110000  0.63318000  0.57747000  1.0 -0.1862893343
C  C16  1  0.31470000  0.09001000  0.33650000  1.0 0.4582426757
C  C17  1  0.25580000  0.11212000  0.42210000  1.0 -0.1027589092
C  C18  1  0.14580000  0.15456000  0.42268000  1.0 -0.2229029542
C  C19  1  0.07540000  0.31495000  0.57561000  1.0 0.0318284588
C  C20  1  0.15890000  0.36682000  0.57747000  1.0 -0.1862893343
C  C21  1  0.68530000  0.09001000  0.83650000  1.0 0.4582426757
C  C22  1  0.74420000  0.11212000  0.92210000  1.0 -0.1027589092
C  C23  1  0.85420000  0.15456000  0.92268000  1.0 -0.2229029542
C  C24  1  0.92460000  0.31495000  0.07561000  1.0 0.0318284588
C  C25  1  0.84110000  0.36682000  0.07747000  1.0 -0.1862893343
C  C26  1  0.31470000  0.90999000  0.83650000  1.0 0.4582426757
C  C27  1  0.25580000  0.88788000  0.92210000  1.0 -0.1027589092
C  C28  1  0.14580000  0.84544000  0.92268000  1.0 -0.2229029542
C  C29  1  0.07540000  0.68505000  0.07561000  1.0 0.0318284588
C  C30  1  0.15890000  0.63318000  0.07747000  1.0 -0.1862893343
C  C31  1  0.31470000  0.09001000  0.66350000  1.0 0.4582426757
C  C32  1  0.25580000  0.11212000  0.57790000  1.0 -0.1027589092
C  C33  1  0.14580000  0.15456000  0.57732000  1.0 -0.2229029542
C  C34  1  0.07540000  0.31495000  0.42439000  1.0 0.0318284588
C  C35  1  0.15890000  0.36682000  0.42253000  1.0 -0.1862893343
C  C36  1  0.68530000  0.90999000  0.66350000  1.0 0.4582426757
C  C37  1  0.74420000  0.88788000  0.57790000  1.0 -0.1027589092
C  C38  1  0.85420000  0.84544000  0.57732000  1.0 -0.2229029542
C  C39  1  0.92460000  0.68505000  0.42439000  1.0 0.0318284588
C  C40  1  0.84110000  0.63318000  0.42253000  1.0 -0.1862893343
C  C41  1  0.30970000  0.90963000  0.00000000  1.0 -0.1562417988
C  C42  1  0.09040000  0.82423000  0.00000000  1.0 0.1000040475
C  C43  1  0.97490000  0.77547000  0.00000000  1.0 -0.2127031029
C  C44  1  0.20910000  0.60853000  0.00000000  1.0 -0.0340918299
C  C45  1  0.31980000  0.56165000  0.00000000  1.0 0.1171509914
C  C46  1  0.69030000  0.09037000  0.00000000  1.0 -0.1527628888
C  C47  1  0.90960000  0.17577000  0.00000000  1.0 0.1000040475
C  C48  1  0.02510000  0.22453000  0.00000000  1.0 -0.2127031029
C  C49  1  0.79090000  0.39147000  0.00000000  1.0 -0.0381658974
C  C50  1  0.68020000  0.43835000  0.00000000  1.0 0.1171509914
C  C51  1  0.69030000  0.90963000  0.50000000  1.0 -0.1527628888
C  C52  1  0.90960000  0.82423000  0.50000000  1.0 0.1000040475
C  C53  1  0.02510000  0.77547000  0.50000000  1.0 -0.2127031029
C  C54  1  0.79090000  0.60853000  0.50000000  1.0 -0.0381658974
C  C55  1  0.68020000  0.56165000  0.50000000  1.0 0.1171509914
C  C56  1  0.30970000  0.09037000  0.50000000  1.0 -0.1562417988
C  C57  1  0.09040000  0.17577000  0.50000000  1.0 0.1000040475
C  C58  1  0.97490000  0.22453000  0.50000000  1.0 -0.2127031029
C  C59  1  0.20910000  0.39147000  0.50000000  1.0 -0.0340918299
C  C60  1  0.31980000  0.43835000  0.50000000  1.0 0.1171509914
C  C61  1  0.50000000  0.50000000  0.04390000  1.0 -0.0205838914
C  C62  1  0.50000000  0.50000000  0.45610000  1.0 -0.0205838914
C  C63  1  0.50000000  0.50000000  0.95610000  1.0 -0.0205838914
C  C64  1  0.50000000  0.50000000  0.54390000  1.0 -0.0205838914
C  C65  1  0.81470000  0.40999000  0.66350000  1.0 0.4582426757
C  C66  1  0.75580000  0.38788000  0.57790000  1.0 -0.1027589092
C  C67  1  0.64580000  0.34544000  0.57732000  1.0 -0.2229029542
C  C68  1  0.57540000  0.18505000  0.42439000  1.0 0.0318284588
C  C69  1  0.65890000  0.13318000  0.42253000  1.0 -0.1862893343
C  C70  1  0.18530000  0.59001000  0.66350000  1.0 0.4582426757
C  C71  1  0.24420000  0.61212000  0.57790000  1.0 -0.1027589092
C  C72  1  0.35420000  0.65456000  0.57732000  1.0 -0.2229029542
C  C73  1  0.42460000  0.81495000  0.42439000  1.0 0.0318284588
C  C74  1  0.34110000  0.86682000  0.42253000  1.0 -0.1862893343
C  C75  1  0.18530000  0.40999000  0.83650000  1.0 0.4582426757
C  C76  1  0.24420000  0.38788000  0.92210000  1.0 -0.1027589092
C  C77  1  0.35420000  0.34544000  0.92268000  1.0 -0.2229029542
C  C78  1  0.42460000  0.18505000  0.07561000  1.0 0.0318284588
C  C79  1  0.34110000  0.13318000  0.07747000  1.0 -0.1862893343
C  C80  1  0.81470000  0.59001000  0.83650000  1.0 0.4582426757
C  C81  1  0.75580000  0.61212000  0.92210000  1.0 -0.1027589092
C  C82  1  0.64580000  0.65456000  0.92268000  1.0 -0.2229029542
C  C83  1  0.57540000  0.81495000  0.07561000  1.0 0.0318284588
C  C84  1  0.65890000  0.86682000  0.07747000  1.0 -0.1862893343
C  C85  1  0.18530000  0.59001000  0.33650000  1.0 0.4582426757
C  C86  1  0.24420000  0.61212000  0.42210000  1.0 -0.1027589092
C  C87  1  0.35420000  0.65456000  0.42268000  1.0 -0.2229029542
C  C88  1  0.42460000  0.81495000  0.57561000  1.0 0.0318284588
C  C89  1  0.34110000  0.86682000  0.57747000  1.0 -0.1862893343
C  C90  1  0.81470000  0.40999000  0.33650000  1.0 0.4582426757
C  C91  1  0.75580000  0.38788000  0.42210000  1.0 -0.1027589092
C  C92  1  0.64580000  0.34544000  0.42268000  1.0 -0.2229029542
C  C93  1  0.57540000  0.18505000  0.57561000  1.0 0.0318284588
C  C94  1  0.65890000  0.13318000  0.57747000  1.0 -0.1862893343
C  C95  1  0.81470000  0.59001000  0.16350000  1.0 0.4582426757
C  C96  1  0.75580000  0.61212000  0.07790000  1.0 -0.1027589092
C  C97  1  0.64580000  0.65456000  0.07732000  1.0 -0.2229029542
C  C98  1  0.57540000  0.81495000  0.92439000  1.0 0.0318284588
C  C99  1  0.65890000  0.86682000  0.92253000  1.0 -0.1862893343
C  C100  1  0.18530000  0.40999000  0.16350000  1.0 0.4582426757
C  C101  1  0.24420000  0.38788000  0.07790000  1.0 -0.1027589092
C  C102  1  0.35420000  0.34544000  0.07732000  1.0 -0.2229029542
C  C103  1  0.42460000  0.18505000  0.92439000  1.0 0.0318284588
C  C104  1  0.34110000  0.13318000  0.92253000  1.0 -0.1862893343
C  C105  1  0.80970000  0.40963000  0.50000000  1.0 -0.1562417988
C  C106  1  0.59040000  0.32423000  0.50000000  1.0 0.1000040475
C  C107  1  0.47490000  0.27547000  0.50000000  1.0 -0.2127031029
C  C108  1  0.70910000  0.10853000  0.50000000  1.0 -0.0381658974
C  C109  1  0.81980000  0.06165000  0.50000000  1.0 0.1171509914
C  C110  1  0.19030000  0.59037000  0.50000000  1.0 -0.1562417988
C  C111  1  0.40960000  0.67577000  0.50000000  1.0 0.1000040475
C  C112  1  0.52510000  0.72453000  0.50000000  1.0 -0.2127031029
C  C113  1  0.29090000  0.89147000  0.50000000  1.0 -0.0381658974
C  C114  1  0.18020000  0.93835000  0.50000000  1.0 0.1171509914
C  C115  1  0.19030000  0.40963000  0.00000000  1.0 -0.1562417988
C  C116  1  0.40960000  0.32423000  0.00000000  1.0 0.1000040475
C  C117  1  0.52510000  0.27547000  0.00000000  1.0 -0.2127031029
C  C118  1  0.29090000  0.10853000  0.00000000  1.0 -0.0381658974
C  C119  1  0.18020000  0.06165000  0.00000000  1.0 0.1171509914
C  C120  1  0.80970000  0.59037000  0.00000000  1.0 -0.1562417988
C  C121  1  0.59040000  0.67577000  0.00000000  1.0 0.1000040475
C  C122  1  0.47490000  0.72453000  0.00000000  1.0 -0.2127031029
C  C123  1  0.70910000  0.89147000  0.00000000  1.0 -0.0381658974
C  C124  1  0.81980000  0.93835000  0.00000000  1.0 0.1171509914
C  C125  1  0.00000000  0.00000000  0.54390000  1.0 -0.0205838914
C  C126  1  0.00000000  0.00000000  0.95610000  1.0 -0.0205838914
C  C127  1  0.00000000  0.00000000  0.45610000  1.0 -0.0205838914
C  C128  1  0.00000000  0.00000000  0.04390000  1.0 -0.0205838914
S  S1  1  0.39124000  0.53560000  0.10345000  0.5 0.2807209477
S  S2  1  0.60876000  0.46440000  0.10345000  0.5 0.2807209477
S  S3  1  0.60876000  0.53560000  0.39655000  0.5 0.2807209477
S  S4  1  0.39124000  0.46440000  0.39655000  0.5 0.2807209477
S  S5  1  0.60876000  0.46440000  0.89655000  0.5 0.2807209477
S  S6  1  0.39124000  0.53560000  0.89655000  0.5 0.2807209477
S  S7  1  0.39124000  0.46440000  0.60345000  0.5 0.2807209477
S  S8  1  0.60876000  0.53560000  0.60345000  0.5 0.2807209477
S  S9  1  0.89124000  0.03560000  0.60345000  0.5 0.2807209477
S  S10  1  0.10876000  0.96440000  0.60345000  0.5 0.2807209477
S  S11  1  0.10876000  0.03560000  0.89655000  0.5 0.2807209477
S  S12  1  0.89124000  0.96440000  0.89655000  0.5 0.2807209477
S  S13  1  0.10876000  0.96440000  0.39655000  0.5 0.2807209477
S  S14  1  0.89124000  0.03560000  0.39655000  0.5 0.2807209477
S  S15  1  0.89124000  0.96440000  0.10345000  0.5 0.2807209477
S  S16  1  0.10876000  0.03560000  0.10345000  0.5 0.2807209477
N  N9  1  0.03940000  0.71196000  0.00000000  1.0 0.0613743769
N  N10  1  0.96060000  0.28804000  0.00000000  1.0 0.0613743769
N  N11  1  0.96060000  0.71196000  0.50000000  1.0 0.0613743769
N  N12  1  0.03940000  0.28804000  0.50000000  1.0 0.0613743769
N  N21  1  0.53940000  0.21196000  0.50000000  1.0 0.0613743769
N  N22  1  0.46060000  0.78804000  0.50000000  1.0 0.0613743769
N  N23  1  0.46060000  0.21196000  0.00000000  1.0 0.0613743769
N  N24  1  0.53940000  0.78804000  0.00000000  1.0 0.0613743769
N  N1  1  0.38050000  0.54280000  0.93480000  0.5 -0.0733361422
N  N2  1  0.61950000  0.45720000  0.93480000  0.5 -0.0733361422
N  N3  1  0.61950000  0.54280000  0.56520000  0.5 -0.0733361422
N  N4  1  0.38050000  0.45720000  0.56520000  0.5 -0.0733361422
N  N5  1  0.61950000  0.45720000  0.06520000  0.5 -0.0733361422
N  N6  1  0.38050000  0.54280000  0.06520000  0.5 -0.0733361422
N  N7  1  0.38050000  0.45720000  0.43480000  0.5 -0.0733361422
N  N8  1  0.61950000  0.54280000  0.43480000  0.5 -0.0733361422
N  N13  1  0.88050000  0.04280000  0.43480000  0.5 -0.0733361422
N  N14  1  0.11950000  0.95720000  0.43480000  0.5 -0.0733361422
N  N15  1  0.11950000  0.04280000  0.06520000  0.5 -0.0733361422
N  N16  1  0.88050000  0.95720000  0.06520000  0.5 -0.0733361422
N  N17  1  0.11950000  0.95720000  0.56520000  0.5 -0.0733361422
N  N18  1  0.88050000  0.04280000  0.56520000  0.5 -0.0733361422
N  N19  1  0.88050000  0.95720000  0.93480000  0.5 -0.0733361422
N  N20  1  0.11950000  0.04280000  0.93480000  0.5 -0.0733361422
O  O1  1  0.39750000  0.95476000  0.16049000  1.0 -0.5607454922
O  O4  1  0.60250000  0.04524000  0.16049000  1.0 -0.5607454922
O  O7  1  0.60250000  0.95476000  0.33951000  1.0 -0.5607454922
O  O10  1  0.39750000  0.04524000  0.33951000  1.0 -0.5607454922
O  O13  1  0.60250000  0.04524000  0.83951000  1.0 -0.5607454922
O  O16  1  0.39750000  0.95476000  0.83951000  1.0 -0.5607454922
O  O19  1  0.39750000  0.04524000  0.66049000  1.0 -0.5607454922
O  O22  1  0.60250000  0.95476000  0.66049000  1.0 -0.5607454922
O  O25  1  0.89750000  0.45476000  0.66049000  1.0 -0.5607454922
O  O28  1  0.10250000  0.54524000  0.66049000  1.0 -0.5607454922
O  O31  1  0.10250000  0.45476000  0.83951000  1.0 -0.5607454922
O  O34  1  0.89750000  0.54524000  0.83951000  1.0 -0.5607454922
O  O37  1  0.10250000  0.54524000  0.33951000  1.0 -0.5607454922
O  O40  1  0.89750000  0.45476000  0.33951000  1.0 -0.5607454922
O  O43  1  0.89750000  0.54524000  0.16049000  1.0 -0.5607454922
O  O46  1  0.10250000  0.45476000  0.16049000  1.0 -0.5607454922
O  O2  1  0.25370000  0.89540000  0.23100000  0.5 -0.1732405177
O  O3  1  0.31110000  0.86990000  0.22710000  0.5 -0.1562417988
O  O5  1  0.74630000  0.10460000  0.23100000  0.5 -0.1732405177
O  O6  1  0.68890000  0.13010000  0.22710000  0.5 -0.1562417988
O  O8  1  0.74630000  0.89540000  0.26900000  0.5 -0.1732405177
O  O9  1  0.68890000  0.86990000  0.27290000  0.5 -0.1562417988
O  O11  1  0.25370000  0.10460000  0.26900000  0.5 -0.1732405177
O  O12  1  0.31110000  0.13010000  0.27290000  0.5 -0.1527628888
O  O14  1  0.74630000  0.10460000  0.76900000  0.5 -0.1732405177
O  O15  1  0.68890000  0.13010000  0.77290000  0.5 -0.1562417988
O  O17  1  0.25370000  0.89540000  0.76900000  0.5 -0.1732405177
O  O18  1  0.31110000  0.86990000  0.77290000  0.5 -0.1562417988
O  O20  1  0.25370000  0.10460000  0.73100000  0.5 -0.1732405177
O  O21  1  0.31110000  0.13010000  0.72710000  0.5 -0.1527628888
O  O23  1  0.74630000  0.89540000  0.73100000  0.5 -0.1756156456
O  O24  1  0.68890000  0.86990000  0.72710000  0.5 -0.1562417988
O  O26  1  0.75370000  0.39540000  0.73100000  0.5 -0.1732405177
O  O27  1  0.81110000  0.36990000  0.72710000  0.5 -0.1527628888
O  O29  1  0.24630000  0.60460000  0.73100000  0.5 -0.1732405177
O  O30  1  0.18890000  0.63010000  0.72710000  0.5 -0.1527628888
O  O32  1  0.24630000  0.39540000  0.76900000  0.5 -0.1732405177
O  O33  1  0.18890000  0.36990000  0.77290000  0.5 -0.1527628888
O  O35  1  0.75370000  0.60460000  0.76900000  0.5 -0.1732405177
O  O36  1  0.81110000  0.63010000  0.77290000  0.5 -0.1527628888
O  O38  1  0.24630000  0.60460000  0.26900000  0.5 -0.1732405177
O  O39  1  0.18890000  0.63010000  0.27290000  0.5 -0.1527628888
O  O41  1  0.75370000  0.39540000  0.26900000  0.5 -0.1732405177
O  O42  1  0.81110000  0.36990000  0.27290000  0.5 -0.1527628888
O  O44  1  0.75370000  0.60460000  0.23100000  0.5 -0.1732405177
O  O45  1  0.81110000  0.63010000  0.22710000  0.5 -0.1562417988
O  O47  1  0.24630000  0.39540000  0.23100000  0.5 -0.1732405177
O  O48  1  0.18890000  0.36990000  0.22710000  0.5 -0.1527628888
