# generated by PACMAN-DDEC6 charge (https://github.com/sxm13/PACMAN/)
data_structure
_chemical_formula_sum              "Zn8 H72 C48 O40"
_cell_length_a       14.325
_cell_length_b       14.325
_cell_length_c       14.325
_cell_angle_alpha    90
_cell_angle_beta     90
_cell_angle_gamma    90

_symmetry_space_group_name_H-M    "P 1"
_symmetry_Int_Tables_number       1

loop_
  _symmetry_equiv_pos_as_xyz
  'x, y, z'

loop_
  _atom_site_type_symbol
  _atom_site_label
  _atom_site_symmetry_multiplicity
  _atom_site_fract_x
  _atom_site_fract_y
  _atom_site_fract_z
  _atom_site_occupancy
  _atom_site_charge
Zn  Zn1       1.0  0.27838  0.77838  0.72162  1.0000 0.8852016242
Zn  Zn2       1.0  0.42535  0.92535  0.57465  1.0000 0.9248863967
Zn  Zn3       1.0  0.22162  0.22162  0.22162  1.0000 0.8843424829
Zn  Zn4       1.0  0.07465  0.07465  0.07465  1.0000 0.9257558497
Zn  Zn5       1.0  0.72162  0.27838  0.77838  1.0000 0.8852016242
Zn  Zn6       1.0  0.57465  0.42535  0.92535  1.0000 0.9248863967
Zn  Zn7       1.0  0.77838  0.72162  0.27838  1.0000 0.8852016242
Zn  Zn8       1.0  0.92535  0.57465  0.42535  1.0000 0.9248863967
H   H1        1.0  0.38680  0.87960  0.40860  1.0000 0.3446200105
H   H2        1.0  0.56360  0.71450  0.49000  1.0000 0.1186663868
H   H3        1.0  0.39110  0.05380  0.36290  1.0000 0.1087273061
H   H4        1.0  0.41720  0.97020  0.29730  1.0000 0.0980394693
H   H5        1.0  0.49460  0.01880  0.35740  1.0000 0.1087273061
H   H6        1.0  0.11320  0.12040  0.90860  1.0000 0.3446200105
H   H7        1.0  0.93640  0.28550  0.99000  1.0000 0.1186663868
H   H8        1.0  0.10890  0.94620  0.86290  1.0000 0.1087273061
H   H9        1.0  0.08280  0.02980  0.79730  1.0000 0.0980394693
H   H10       1.0  0.00540  0.98120  0.85740  1.0000 0.1087273061
H   H11       1.0  0.61320  0.37960  0.09140  1.0000 0.3446200105
H   H12       1.0  0.43640  0.21450  0.01000  1.0000 0.1186663868
H   H13       1.0  0.60890  0.55380  0.13710  1.0000 0.1087273061
H   H14       1.0  0.58280  0.47020  0.20270  1.0000 0.0980394693
H   H15       1.0  0.50540  0.51880  0.14260  1.0000 0.1087273061
H   H16       1.0  0.88680  0.62040  0.59140  1.0000 0.3446200105
H   H17       1.0  0.06360  0.78550  0.51000  1.0000 0.1186663868
H   H18       1.0  0.89110  0.44620  0.63710  1.0000 0.1087273061
H   H19       1.0  0.91720  0.52980  0.70270  1.0000 0.0980394693
H   H20       1.0  0.99460  0.48120  0.64260  1.0000 0.1087273061
H   H21       1.0  0.40860  0.38680  0.87960  1.0000 0.3446200105
H   H22       1.0  0.49000  0.56360  0.71450  1.0000 0.1186663868
H   H23       1.0  0.36290  0.39110  0.05380  1.0000 0.1087273061
H   H24       1.0  0.29730  0.41720  0.97020  1.0000 0.0980394693
H   H25       1.0  0.35740  0.49460  0.01880  1.0000 0.1087273061
H   H26       1.0  0.90860  0.11320  0.12040  1.0000 0.3446200105
H   H27       1.0  0.99000  0.93640  0.28550  1.0000 0.1186663868
H   H28       1.0  0.86290  0.10890  0.94620  1.0000 0.1087273061
H   H29       1.0  0.79730  0.08280  0.02980  1.0000 0.0980394693
H   H30       1.0  0.85740  0.00540  0.98120  1.0000 0.1087273061
H   H31       1.0  0.09140  0.61320  0.37960  1.0000 0.3446200105
H   H32       1.0  0.01000  0.43640  0.21450  1.0000 0.1186663868
H   H33       1.0  0.13710  0.60890  0.55380  1.0000 0.1087273061
H   H34       1.0  0.20270  0.58280  0.47020  1.0000 0.0980394693
H   H35       1.0  0.14260  0.50540  0.51880  1.0000 0.1087273061
H   H36       1.0  0.59140  0.88680  0.62040  1.0000 0.3446200105
H   H37       1.0  0.51000  0.06360  0.78550  1.0000 0.1186663868
H   H38       1.0  0.63710  0.89110  0.44620  1.0000 0.1087273061
H   H39       1.0  0.70270  0.91720  0.52980  1.0000 0.0980394693
H   H40       1.0  0.64260  0.99460  0.48120  1.0000 0.1087273061
H   H41       1.0  0.87960  0.40860  0.38680  1.0000 0.3446200105
H   H42       1.0  0.71450  0.49000  0.56360  1.0000 0.1186663868
H   H43       1.0  0.05380  0.36290  0.39110  1.0000 0.1087273061
H   H44       1.0  0.97020  0.29730  0.41720  1.0000 0.0980394693
H   H45       1.0  0.01880  0.35740  0.49460  1.0000 0.1087273061
H   H46       1.0  0.12040  0.90860  0.11320  1.0000 0.3446200105
H   H47       1.0  0.28550  0.99000  0.93640  1.0000 0.1186663868
H   H48       1.0  0.94620  0.86290  0.10890  1.0000 0.1087273061
H   H49       1.0  0.02980  0.79730  0.08280  1.0000 0.0980394693
H   H50       1.0  0.98120  0.85740  0.00540  1.0000 0.1087273061
H   H51       1.0  0.37960  0.09140  0.61320  1.0000 0.3446200105
H   H52       1.0  0.21450  0.01000  0.43640  1.0000 0.1186663868
H   H53       1.0  0.55380  0.13710  0.60890  1.0000 0.1087273061
H   H54       1.0  0.47020  0.20270  0.58280  1.0000 0.0980394693
H   H55       1.0  0.51880  0.14260  0.50540  1.0000 0.1087273061
H   H56       1.0  0.62040  0.59140  0.88680  1.0000 0.3446200105
H   H57       1.0  0.78550  0.51000  0.06360  1.0000 0.1186663868
H   H58       1.0  0.44620  0.63710  0.89110  1.0000 0.1087273061
H   H59       1.0  0.52980  0.70270  0.91720  1.0000 0.0980394693
H   H60       1.0  0.48120  0.64260  0.99460  1.0000 0.1087273061
H   H61       1.0  0.21520  0.64270  0.81440  0.3300 0.1558248164
H   H62       1.0  0.28480  0.35730  0.31440  0.3300 0.1540801046
H   H63       1.0  0.78480  0.14270  0.68560  0.3300 0.1540801046
H   H64       1.0  0.71520  0.85730  0.18560  0.3300 0.1540801046
H   H65       1.0  0.81440  0.21520  0.64270  0.3300 0.1540801046
H   H66       1.0  0.31440  0.28480  0.35730  0.3300 0.1540801046
H   H67       1.0  0.68560  0.78480  0.14270  0.3300 0.1558248164
H   H68       1.0  0.18560  0.71520  0.85730  0.3300 0.1540801046
H   H69       1.0  0.64270  0.81440  0.21520  0.3300 0.1558248164
H   H70       1.0  0.35730  0.31440  0.28480  0.3300 0.1540801046
H   H71       1.0  0.14270  0.68560  0.78480  0.3300 0.1558248164
H   H72       1.0  0.85730  0.18560  0.71520  0.3300 0.1540801046
C   C1        1.0  0.43650  0.71660  0.62180  1.0000 0.5790885948
C   C2        1.0  0.51460  0.64940  0.60470  1.0000 -0.0407033854
C   C3        1.0  0.57400  0.66450  0.53000  1.0000 -0.1221116298
C   C4        1.0  0.43040  0.00000  0.35600  1.0000 -0.1887449412
C   C5        1.0  0.06350  0.28340  0.12180  1.0000 0.5790885948
C   C6        1.0  0.98540  0.35060  0.10470  1.0000 -0.0407033854
C   C7        1.0  0.92600  0.33550  0.03000  1.0000 -0.1221116298
C   C8        1.0  0.06960  0.00000  0.85600  1.0000 -0.1887449412
C   C9        1.0  0.56350  0.21660  0.87820  1.0000 0.5790885948
C   C10       1.0  0.48540  0.14940  0.89530  1.0000 -0.0407033854
C   C11       1.0  0.42600  0.16450  0.97000  1.0000 -0.1221116298
C   C12       1.0  0.56960  0.50000  0.14400  1.0000 -0.1887449412
C   C13       1.0  0.93650  0.78340  0.37820  1.0000 0.5790885948
C   C14       1.0  0.01460  0.85060  0.39530  1.0000 -0.0407033854
C   C15       1.0  0.07400  0.83550  0.47000  1.0000 -0.1221116298
C   C16       1.0  0.93040  0.50000  0.64400  1.0000 -0.1887449412
C   C17       1.0  0.62180  0.43650  0.71660  1.0000 0.5790885948
C   C18       1.0  0.60470  0.51460  0.64940  1.0000 -0.0407033854
C   C19       1.0  0.53000  0.57400  0.66450  1.0000 -0.1221116298
C   C20       1.0  0.35600  0.43040  0.00000  1.0000 -0.1887449412
C   C21       1.0  0.12180  0.06350  0.28340  1.0000 0.5790885948
C   C22       1.0  0.10470  0.98540  0.35060  1.0000 -0.0407033854
C   C23       1.0  0.03000  0.92600  0.33550  1.0000 -0.1221116298
C   C24       1.0  0.85600  0.06960  0.00000  1.0000 -0.1887449412
C   C25       1.0  0.87820  0.56350  0.21660  1.0000 0.5790885948
C   C26       1.0  0.89530  0.48540  0.14940  1.0000 -0.0407033854
C   C27       1.0  0.97000  0.42600  0.16450  1.0000 -0.1221116298
C   C28       1.0  0.14400  0.56960  0.50000  1.0000 -0.1887449412
C   C29       1.0  0.37820  0.93650  0.78340  1.0000 0.5790885948
C   C30       1.0  0.39530  0.01460  0.85060  1.0000 -0.0407033854
C   C31       1.0  0.47000  0.07400  0.83550  1.0000 -0.1221116298
C   C32       1.0  0.64400  0.93040  0.50000  1.0000 -0.1887449412
C   C33       1.0  0.71660  0.62180  0.43650  1.0000 0.5790885948
C   C34       1.0  0.64940  0.60470  0.51460  1.0000 -0.0407033854
C   C35       1.0  0.66450  0.53000  0.57400  1.0000 -0.1221116298
C   C36       1.0  0.00000  0.35600  0.43040  1.0000 -0.1887449412
C   C37       1.0  0.28340  0.12180  0.06350  1.0000 0.5790885948
C   C38       1.0  0.35060  0.10470  0.98540  1.0000 -0.0407033854
C   C39       1.0  0.33550  0.03000  0.92600  1.0000 -0.1221116298
C   C40       1.0  0.00000  0.85600  0.06960  1.0000 -0.1887449412
C   C41       1.0  0.21660  0.87820  0.56350  1.0000 0.5790885948
C   C42       1.0  0.14940  0.89530  0.48540  1.0000 -0.0407033854
C   C43       1.0  0.16450  0.97000  0.42600  1.0000 -0.1221116298
C   C44       1.0  0.50000  0.14400  0.56960  1.0000 -0.1887449412
C   C45       1.0  0.78340  0.37820  0.93650  1.0000 0.5790885948
C   C46       1.0  0.85060  0.39530  0.01460  1.0000 -0.0407033854
C   C47       1.0  0.83550  0.47000  0.07400  1.0000 -0.1221116298
C   C48       1.0  0.50000  0.64400  0.93040  1.0000 -0.1887449412
O   O1        1.0  0.42360  0.78060  0.56600  1.0000 -0.5821930059
O   O2        1.0  0.38410  0.69840  0.69400  1.0000 -0.573653508
O   O3        1.0  0.41230  0.93450  0.43210  1.0000 -0.4362602222
O   O4        1.0  0.07640  0.21940  0.06600  1.0000 -0.5821930059
O   O5        1.0  0.11590  0.30160  0.19400  1.0000 -0.573653508
O   O6        1.0  0.08770  0.06550  0.93210  1.0000 -0.4362602222
O   O7        1.0  0.57640  0.28060  0.93400  1.0000 -0.5821930059
O   O8        1.0  0.61590  0.19840  0.80600  1.0000 -0.573653508
O   O9        1.0  0.58770  0.43450  0.06790  1.0000 -0.4362602222
O   O10       1.0  0.92360  0.71940  0.43400  1.0000 -0.5821930059
O   O11       1.0  0.88410  0.80160  0.30600  1.0000 -0.573653508
O   O12       1.0  0.91230  0.56550  0.56790  1.0000 -0.4362602222
O   O13       1.0  0.56600  0.42360  0.78060  1.0000 -0.5821930059
O   O14       1.0  0.69400  0.38410  0.69840  1.0000 -0.573653508
O   O15       1.0  0.43210  0.41230  0.93450  1.0000 -0.4362602222
O   O16       1.0  0.06600  0.07640  0.21940  1.0000 -0.5821930059
O   O17       1.0  0.19400  0.11590  0.30160  1.0000 -0.573653508
O   O18       1.0  0.93210  0.08770  0.06550  1.0000 -0.4362602222
O   O19       1.0  0.93400  0.57640  0.28060  1.0000 -0.5821930059
O   O20       1.0  0.80600  0.61590  0.19840  1.0000 -0.573653508
O   O21       1.0  0.06790  0.58770  0.43450  1.0000 -0.4362602222
O   O22       1.0  0.43400  0.92360  0.71940  1.0000 -0.5821930059
O   O23       1.0  0.30600  0.88410  0.80160  1.0000 -0.573653508
O   O24       1.0  0.56790  0.91230  0.56550  1.0000 -0.4362602222
O   O25       1.0  0.78060  0.56600  0.42360  1.0000 -0.5821930059
O   O26       1.0  0.69840  0.69400  0.38410  1.0000 -0.573653508
O   O27       1.0  0.93450  0.43210  0.41230  1.0000 -0.4362602222
O   O28       1.0  0.21940  0.06600  0.07640  1.0000 -0.5821930059
O   O29       1.0  0.30160  0.19400  0.11590  1.0000 -0.573653508
O   O30       1.0  0.06550  0.93210  0.08770  1.0000 -0.4362602222
O   O31       1.0  0.28060  0.93400  0.57640  1.0000 -0.5821930059
O   O32       1.0  0.19840  0.80600  0.61590  1.0000 -0.573653508
O   O33       1.0  0.43450  0.06790  0.58770  1.0000 -0.4362602222
O   O34       1.0  0.71940  0.43400  0.92360  1.0000 -0.5821930059
O   O35       1.0  0.80160  0.30600  0.88410  1.0000 -0.573653508
O   O36       1.0  0.56550  0.56790  0.91230  1.0000 -0.4362602222
O   O37       1.0  0.19850  0.69850  0.80150  1.0000 -0.5166827677
O   O38       1.0  0.30150  0.30150  0.30150  1.0000 -0.5166827677
O   O39       1.0  0.80150  0.19850  0.69850  1.0000 -0.5166827677
O   O40       1.0  0.69850  0.80150  0.19850  1.0000 -0.5166827677
