# DDEC6 charges by PACMAN v1.1 (https://github.com/mtap-research/PACMAN-charge/)
data_c7dt04659f2_2_ASR_pacman
_symmetry_space_group_name_H-M   'P 1'
_cell_length_a   9.20190000
_cell_length_b   13.47430000
_cell_length_c   25.33340000
_cell_angle_alpha   90.00000000
_cell_angle_beta   90.41210000
_cell_angle_gamma   90.00000000
_symmetry_Int_Tables_number   1
_chemical_formula_structural   ZnH28C30NO6
_chemical_formula_sum   'Zn4 H112 C120 N4 O24'
_cell_volume   3140.98576896
_cell_formula_units_Z   4
loop_
 _symmetry_equiv_pos_site_id
 _symmetry_equiv_pos_as_xyz
  1  'x, y, z'
loop_
 _atom_site_type_symbol
 _atom_site_label
 _atom_site_symmetry_multiplicity
 _atom_site_fract_x
 _atom_site_fract_y
 _atom_site_fract_z
 _atom_site_occupancy
 _atom_site_charge
Zn  Zn1  1  0.10562000  0.92047000  0.49618000  1.0 0.8444838263
Zn  Zn2  1  0.89438000  0.42047000  0.00382000  1.0 0.8444838263
Zn  Zn3  1  0.89438000  0.07953000  0.50382000  1.0 0.8444838263
Zn  Zn4  1  0.10562000  0.57953000  0.99618000  1.0 0.8444838263
H  H1  1  0.94891000  0.77882000  0.34814000  1.0 0.1269587614
H  H2  1  0.05109000  0.27882000  0.15186000  1.0 0.1269587614
H  H3  1  0.05109000  0.22118000  0.65186000  1.0 0.1269587614
H  H4  1  0.94891000  0.72118000  0.84814000  1.0 0.1269587614
H  H5  1  0.98744000  0.63519000  0.44418000  1.0 0.1425053038
H  H6  1  0.01256000  0.13519000  0.05582000  1.0 0.1425053038
H  H7  1  0.01256000  0.36481000  0.55582000  1.0 0.1425053038
H  H8  1  0.98744000  0.86481000  0.94418000  1.0 0.1425053038
H  H9  1  0.76850000  0.68793000  0.47854000  1.0 0.1206721031
H  H10  1  0.23150000  0.18793000  0.02146000  1.0 0.1206721031
H  H11  1  0.23150000  0.31207000  0.52146000  1.0 0.1206721031
H  H12  1  0.76850000  0.81207000  0.97854000  1.0 0.1206721031
H  H13  1  0.48881000  0.90254000  0.31316000  1.0 0.1456912197
H  H14  1  0.51119000  0.40254000  0.18684000  1.0 0.1456912197
H  H15  1  0.51119000  0.09746000  0.68684000  1.0 0.1456912197
H  H16  1  0.48881000  0.59746000  0.81316000  1.0 0.1456912197
H  H17  1  0.89289000  0.78243000  0.10918000  1.0 0.1206721031
H  H18  1  0.10711000  0.28243000  0.39082000  1.0 0.1206721031
H  H19  1  0.10711000  0.21757000  0.89082000  1.0 0.1206721031
H  H20  1  0.89289000  0.71757000  0.60918000  1.0 0.1206721031
H  H21  1  0.78172000  0.86066000  0.18002000  1.0 0.1425053038
H  H22  1  0.21828000  0.36066000  0.31998000  1.0 0.1425053038
H  H23  1  0.21828000  0.13934000  0.81998000  1.0 0.1425053038
H  H24  1  0.78172000  0.63934000  0.68002000  1.0 0.1425053038
H  H25  1  0.60874000  0.94778000  0.38970000  1.0 0.1132843706
H  H26  1  0.39126000  0.44778000  0.11030000  1.0 0.1132843706
H  H27  1  0.39126000  0.05222000  0.61030000  1.0 0.1132843706
H  H28  1  0.60874000  0.55222000  0.88970000  1.0 0.1132843706
H  H29  1  0.83247000  0.73637000  0.27019000  1.0 0.1425053038
H  H30  1  0.16753000  0.23637000  0.22981000  1.0 0.1425053038
H  H31  1  0.16753000  0.26363000  0.72981000  1.0 0.1425053038
H  H32  1  0.83247000  0.76363000  0.77019000  1.0 0.1425053038
H  H33  1  0.60684000  0.56779000  0.54249000  1.0 0.1456912197
H  H34  1  0.39316000  0.06779000  0.95751000  1.0 0.1456912197
H  H35  1  0.39316000  0.43221000  0.45751000  1.0 0.1456912197
H  H36  1  0.60684000  0.93221000  0.04249000  1.0 0.1456912197
H  H37  1  0.34859000  0.60641000  0.54390000  1.0 0.1456912197
H  H38  1  0.65141000  0.10641000  0.95610000  1.0 0.1456912197
H  H39  1  0.65141000  0.39359000  0.45610000  1.0 0.1456912197
H  H40  1  0.34859000  0.89359000  0.04390000  1.0 0.1456912197
H  H41  1  0.16153000  0.71547000  0.53306000  1.0 0.1206721031
H  H42  1  0.83847000  0.21547000  0.96694000  1.0 0.1206721031
H  H43  1  0.83847000  0.28453000  0.46694000  1.0 0.1206721031
H  H44  1  0.16153000  0.78453000  0.03306000  1.0 0.1206721031
H  H45  1  0.52418000  0.62342000  0.20105000  1.0 0.1425053038
H  H46  1  0.47582000  0.12342000  0.29895000  1.0 0.1425053038
H  H47  1  0.47582000  0.37658000  0.79895000  1.0 0.1425053038
H  H48  1  0.52418000  0.87658000  0.70105000  1.0 0.1425053038
H  H49  1  0.63401000  0.54583000  0.12991000  1.0 0.1132843706
H  H50  1  0.36599000  0.04583000  0.37009000  1.0 0.1132843706
H  H51  1  0.36599000  0.45417000  0.87009000  1.0 0.1132843706
H  H52  1  0.63401000  0.95417000  0.62991000  1.0 0.1132843706
H  H53  1  0.42479000  0.91785000  0.47835000  1.0 0.1132843706
H  H54  1  0.57521000  0.41785000  0.02165000  1.0 0.1132843706
H  H55  1  0.57521000  0.08215000  0.52165000  1.0 0.1132843706
H  H56  1  0.42479000  0.58215000  0.97835000  1.0 0.1132843706
H  H57  1  0.62046000  0.81443000  0.48838000  1.0 0.1425053038
H  H58  1  0.37954000  0.31443000  0.01162000  1.0 0.1425053038
H  H59  1  0.37954000  0.18557000  0.51162000  1.0 0.1425053038
H  H60  1  0.62046000  0.68557000  0.98838000  1.0 0.1425053038
H  H61  1  0.79589000  0.31893000  0.58444000  1.0 0.0910849795
H  H62  1  0.20411000  0.81893000  0.91556000  1.0 0.0910849795
H  H63  1  0.20411000  0.68107000  0.41556000  1.0 0.0910849795
H  H64  1  0.79589000  0.18107000  0.08444000  1.0 0.0910849795
H  H65  1  0.83794000  0.39027000  0.63138000  1.0 0.1002529773
H  H66  1  0.16206000  0.89027000  0.86862000  1.0 0.1002529773
H  H67  1  0.16206000  0.60973000  0.36862000  1.0 0.1002529773
H  H68  1  0.83794000  0.10973000  0.13138000  1.0 0.1002529773
H  H69  1  0.61055000  0.30940000  0.64521000  1.0 0.1002529773
H  H70  1  0.38945000  0.80940000  0.85479000  1.0 0.1002529773
H  H71  1  0.38945000  0.69060000  0.35479000  1.0 0.1002529773
H  H72  1  0.61055000  0.19060000  0.14521000  1.0 0.1002529773
H  H73  1  0.54884000  0.36342000  0.59516000  1.0 0.1002529773
H  H74  1  0.45116000  0.86342000  0.90484000  1.0 0.1002529773
H  H75  1  0.45116000  0.63658000  0.40484000  1.0 0.1002529773
H  H76  1  0.54884000  0.13658000  0.09516000  1.0 0.1002529773
H  H77  1  0.59347000  0.44610000  0.69555000  0.49 0.0682951622
H  H78  1  0.40653000  0.94610000  0.80445000  0.49 0.0682951622
H  H79  1  0.40653000  0.55390000  0.30445000  0.49 0.0682951622
H  H80  1  0.59347000  0.05390000  0.19555000  0.49 0.0682951622
H  H81  1  0.60748000  0.51868000  0.64657000  0.49 0.0682951622
H  H82  1  0.39252000  0.01868000  0.85343000  0.49 0.0682951622
H  H83  1  0.39252000  0.48132000  0.35343000  0.49 0.0682951622
H  H84  1  0.60748000  0.98132000  0.14657000  0.49 0.0682951622
H  H85  1  0.10253000  0.56872000  0.68652000  0.49 0.0398801863
H  H86  1  0.89747000  0.06872000  0.81348000  0.49 0.0398801863
H  H87  1  0.89747000  0.43128000  0.31348000  0.49 0.0398801863
H  H88  1  0.10253000  0.93128000  0.18652000  0.49 0.0398801863
H  H89  1  0.13701000  0.53312000  0.62904000  0.49 0.060691897
H  H90  1  0.86299000  0.03312000  0.87096000  0.49 0.060691897
H  H91  1  0.86299000  0.46688000  0.37096000  0.49 0.060691897
H  H92  1  0.13701000  0.96688000  0.12904000  0.49 0.060691897
H  H93  1  0.12628000  0.45559000  0.67499000  0.49 0.0682951622
H  H94  1  0.87372000  0.95559000  0.82501000  0.49 0.0682951622
H  H95  1  0.87372000  0.54441000  0.32501000  0.49 0.0682951622
H  H96  1  0.12628000  0.04441000  0.17499000  0.49 0.0682951622
H  H97  1  0.34958000  0.38531000  0.66117000  0.49 0.060691897
H  H98  1  0.65042000  0.88531000  0.83883000  0.49 0.060691897
H  H99  1  0.65042000  0.61469000  0.33883000  0.49 0.060691897
H  H100  1  0.34958000  0.11469000  0.16117000  0.49 0.060691897
H  H101  1  0.36482000  0.45188000  0.61057000  0.49 0.0682951622
H  H102  1  0.63518000  0.95188000  0.88943000  0.49 0.0682951622
H  H103  1  0.63518000  0.54812000  0.38943000  0.49 0.0682951622
H  H104  1  0.36482000  0.04812000  0.11057000  0.49 0.0682951622
H  H105  1  0.34399000  0.59645000  0.66328000  0.49 0.0682951622
H  H106  1  0.65601000  0.09645000  0.83672000  0.49 0.0682951622
H  H107  1  0.65601000  0.40355000  0.33672000  0.49 0.0682951622
H  H108  1  0.34399000  0.90355000  0.16328000  0.49 0.0682951622
H  H109  1  0.32911000  0.52981000  0.71407000  0.49 0.060691897
H  H110  1  0.67089000  0.02981000  0.78593000  0.49 0.060691897
H  H111  1  0.67089000  0.47019000  0.28593000  0.49 0.060691897
H  H112  1  0.32911000  0.97019000  0.21407000  0.49 0.060691897
H  H113  1  0.35797000  0.57039000  0.63419000  0.51 0.0519393029
H  H114  1  0.64203000  0.07039000  0.86581000  0.51 0.0519393029
H  H115  1  0.64203000  0.42961000  0.36581000  0.51 0.0519393029
H  H116  1  0.35797000  0.92961000  0.13419000  0.51 0.0519393029
H  H117  1  0.31981000  0.46279000  0.61560000  0.51 0.0805354696
H  H118  1  0.68019000  0.96279000  0.88440000  0.51 0.0805354696
H  H119  1  0.68019000  0.53721000  0.38440000  0.51 0.0805354696
H  H120  1  0.31981000  0.03721000  0.11560000  0.51 0.0805354696
H  H121  1  0.57599000  0.51461000  0.63667000  0.51 0.0910849795
H  H122  1  0.42401000  0.01461000  0.86333000  0.51 0.0910849795
H  H123  1  0.42401000  0.48539000  0.36333000  0.51 0.0910849795
H  H124  1  0.57599000  0.98539000  0.13667000  0.51 0.0910849795
H  H125  1  0.64186000  0.46272000  0.68599000  0.51 0.0519393029
H  H126  1  0.35814000  0.96272000  0.81401000  0.51 0.0519393029
H  H127  1  0.35814000  0.53728000  0.31401000  0.51 0.0519393029
H  H128  1  0.64186000  0.03728000  0.18599000  0.51 0.0519393029
H  H129  1  0.15666000  0.55449000  0.69948000  0.51 0.0519393029
H  H130  1  0.84334000  0.05449000  0.80052000  0.51 0.060691897
H  H131  1  0.84334000  0.44551000  0.30052000  0.51 0.060691897
H  H132  1  0.15666000  0.94551000  0.19948000  0.51 0.060691897
H  H133  1  0.10336000  0.56129000  0.64068000  0.51 0.0253313498
H  H134  1  0.89664000  0.06129000  0.85932000  0.51 0.0253313498
H  H135  1  0.89664000  0.43871000  0.35932000  0.51 0.0253313498
H  H136  1  0.10336000  0.93871000  0.14068000  0.51 0.0253313498
H  H137  1  0.10980000  0.45810000  0.66918000  0.51 0.0682951622
H  H138  1  0.89020000  0.95810000  0.83082000  0.51 0.0682951622
H  H139  1  0.89020000  0.54190000  0.33082000  0.51 0.0682951622
H  H140  1  0.10980000  0.04190000  0.16918000  0.51 0.0682951622
H  H141  1  0.39405000  0.40067000  0.69832000  0.51 0.060691897
H  H142  1  0.60595000  0.90067000  0.80168000  0.51 0.060691897
H  H143  1  0.60595000  0.59933000  0.30168000  0.51 0.060691897
H  H144  1  0.39405000  0.09933000  0.19832000  0.51 0.060691897
H  H145  1  0.43527000  0.50922000  0.71614000  0.51 0.0682951622
H  H146  1  0.56473000  0.00922000  0.78386000  0.51 0.0682951622
H  H147  1  0.56473000  0.49078000  0.28386000  0.51 0.0682951622
H  H148  1  0.43527000  0.99078000  0.21614000  0.51 0.0682951622
C  C1  1  0.85470000  0.60069000  0.06934000  1.0 0.5771927424
C  C2  1  0.14530000  0.10069000  0.43066000  1.0 0.5771927424
C  C3  1  0.14530000  0.39931000  0.93066000  1.0 0.5771927424
C  C4  1  0.85470000  0.89931000  0.56934000  1.0 0.5771927424
C  C5  1  0.87470000  0.90598000  0.42321000  1.0 0.5739883371
C  C6  1  0.12530000  0.40598000  0.07679000  1.0 0.5739883371
C  C7  1  0.12530000  0.09402000  0.57679000  1.0 0.5739883371
C  C8  1  0.87470000  0.59402000  0.92321000  1.0 0.5739883371
C  C9  1  0.85750000  0.80486000  0.34056000  1.0 -0.0769742392
C  C10  1  0.14250000  0.30486000  0.15944000  1.0 -0.0769742392
C  C11  1  0.14250000  0.19514000  0.65944000  1.0 -0.0769742392
C  C12  1  0.85750000  0.69514000  0.84056000  1.0 -0.0769742392
C  C13  1  0.77690000  0.65515000  0.11273000  1.0 -0.0504695475
C  C14  1  0.22310000  0.15515000  0.38727000  1.0 -0.0504695475
C  C15  1  0.22310000  0.34485000  0.88727000  1.0 -0.0504695475
C  C16  1  0.77690000  0.84485000  0.61273000  1.0 -0.0504695475
C  C17  1  0.79270000  0.86979000  0.37635000  1.0 -0.0504695475
C  C18  1  0.20730000  0.36979000  0.12365000  1.0 -0.0504695475
C  C19  1  0.20730000  0.13021000  0.62365000  1.0 -0.0504695475
C  C20  1  0.79270000  0.63021000  0.87635000  1.0 -0.0504695475
C  C21  1  0.99290000  0.58071000  0.46664000  1.0 -0.3083104156
C  C22  1  0.00710000  0.08071000  0.03336000  1.0 -0.3083104156
C  C23  1  0.00710000  0.41929000  0.53336000  1.0 -0.3083104156
C  C24  1  0.99290000  0.91929000  0.96664000  1.0 -0.3083104156
C  C25  1  0.75410000  0.63104000  0.49862000  1.0 -0.1514949798
C  C26  1  0.24590000  0.13104000  0.00138000  1.0 -0.1514949798
C  C27  1  0.24590000  0.36896000  0.50138000  1.0 -0.1514949798
C  C28  1  0.75410000  0.86896000  0.99862000  1.0 -0.1514949798
C  C29  1  0.58220000  0.87927000  0.32006000  1.0 -0.2113830472
C  C30  1  0.41780000  0.37927000  0.17994000  1.0 -0.2113830472
C  C31  1  0.41780000  0.12073000  0.67994000  1.0 -0.2113830472
C  C32  1  0.58220000  0.62073000  0.82006000  1.0 -0.2113830472
C  C33  1  0.65150000  0.81719000  0.28422000  1.0 0.2013597253
C  C34  1  0.34850000  0.31719000  0.21578000  1.0 0.2013597253
C  C35  1  0.34850000  0.18281000  0.71578000  1.0 0.2013597253
C  C36  1  0.65150000  0.68281000  0.78422000  1.0 0.2013597253
C  C37  1  0.88430000  0.47894000  0.53491000  1.0 0.2013597253
C  C38  1  0.11570000  0.97894000  0.96509000  1.0 0.2013597253
C  C39  1  0.11570000  0.52106000  0.46509000  1.0 0.2013597253
C  C40  1  0.88430000  0.02106000  0.03491000  1.0 0.2013597253
C  C41  1  0.81970000  0.75016000  0.12761000  1.0 -0.069382444
C  C42  1  0.18030000  0.25016000  0.37239000  1.0 -0.069382444
C  C43  1  0.18030000  0.24984000  0.87239000  1.0 -0.069382444
C  C44  1  0.81970000  0.74984000  0.62761000  1.0 -0.069382444
C  C45  1  0.75320000  0.79710000  0.17009000  1.0 -0.2270364091
C  C46  1  0.24680000  0.29710000  0.32991000  1.0 -0.2270364091
C  C47  1  0.24680000  0.20290000  0.82991000  1.0 -0.2270364091
C  C48  1  0.75320000  0.70290000  0.67009000  1.0 -0.2270364091
C  C49  1  0.65360000  0.90567000  0.36571000  1.0 -0.0974108018
C  C50  1  0.34640000  0.40567000  0.13429000  1.0 -0.0974108018
C  C51  1  0.34640000  0.09433000  0.63429000  1.0 -0.0974108018
C  C52  1  0.65360000  0.59433000  0.86571000  1.0 -0.0974108018
C  C53  1  0.50770000  0.69639000  0.51623000  1.0 0.1657137536
C  C54  1  0.49230000  0.19639000  0.98377000  1.0 0.1657137536
C  C55  1  0.49230000  0.30361000  0.48377000  1.0 0.1657137536
C  C56  1  0.50770000  0.80361000  0.01623000  1.0 0.1657137536
C  C57  1  0.78830000  0.77877000  0.29419000  1.0 -0.2383537218
C  C58  1  0.21170000  0.27877000  0.20581000  1.0 -0.2383537218
C  C59  1  0.21170000  0.22123000  0.70581000  1.0 -0.2383537218
C  C60  1  0.78830000  0.72123000  0.79419000  1.0 -0.2383537218
C  C61  1  0.62420000  0.62332000  0.52166000  1.0 -0.2219925895
C  C62  1  0.37580000  0.12332000  0.97834000  1.0 -0.2219925895
C  C63  1  0.37580000  0.37668000  0.47834000  1.0 -0.2219925895
C  C64  1  0.62420000  0.87668000  0.02166000  1.0 -0.2219925895
C  C65  1  0.36650000  0.66922000  0.53018000  1.0 -0.2219925895
C  C66  1  0.63350000  0.16922000  0.96982000  1.0 -0.2219925895
C  C67  1  0.63350000  0.33078000  0.46982000  1.0 -0.2219925895
C  C68  1  0.36650000  0.83078000  0.03018000  1.0 -0.2219925895
C  C69  1  0.25480000  0.73500000  0.52365000  1.0 0.0682951622
C  C70  1  0.74520000  0.23500000  0.97635000  1.0 0.0682951622
C  C71  1  0.74520000  0.26500000  0.47635000  1.0 0.0682951622
C  C72  1  0.25480000  0.76500000  0.02365000  1.0 0.0682951622
C  C73  1  0.64440000  0.74864000  0.19744000  1.0 0.2013597253
C  C74  1  0.35560000  0.24864000  0.30256000  1.0 0.2013597253
C  C75  1  0.35560000  0.25136000  0.80256000  1.0 0.2013597253
C  C76  1  0.64440000  0.75136000  0.69744000  1.0 0.2013597253
C  C77  1  0.59830000  0.65498000  0.18278000  1.0 -0.2113830472
C  C78  1  0.40170000  0.15498000  0.31722000  1.0 -0.2113830472
C  C79  1  0.40170000  0.34502000  0.81722000  1.0 -0.2113830472
C  C80  1  0.59830000  0.84502000  0.68278000  1.0 -0.2113830472
C  C81  1  0.87640000  0.56203000  0.50083000  1.0 0.0253313498
C  C82  1  0.12360000  0.06203000  0.99917000  1.0 0.0245338157
C  C83  1  0.12360000  0.43797000  0.49917000  1.0 0.0253313498
C  C84  1  0.87640000  0.93797000  0.00083000  1.0 0.0253313498
C  C85  1  0.66470000  0.60870000  0.14023000  1.0 -0.0883843163
C  C86  1  0.33530000  0.10870000  0.35977000  1.0 -0.0883843163
C  C87  1  0.33530000  0.39130000  0.85977000  1.0 -0.0883843163
C  C88  1  0.66470000  0.89130000  0.64023000  1.0 -0.0883843163
C  C89  1  0.41000000  0.85424000  0.49151000  1.0 0.0805354696
C  C90  1  0.59000000  0.35424000  0.00849000  1.0 0.0805354696
C  C91  1  0.59000000  0.14576000  0.50849000  1.0 0.0805354696
C  C92  1  0.41000000  0.64576000  0.99151000  1.0 0.0805354696
C  C93  1  0.52800000  0.79239000  0.49718000  1.0 -0.1817827858
C  C94  1  0.47200000  0.29239000  0.00282000  1.0 -0.1817827858
C  C95  1  0.47200000  0.20761000  0.50282000  1.0 -0.1817827858
C  C96  1  0.52800000  0.70761000  0.99718000  1.0 -0.1817827858
C  C97  1  0.76880000  0.37914000  0.60291000  1.0 -0.0122214663
C  C98  1  0.23120000  0.87914000  0.89709000  1.0 -0.0122214663
C  C99  1  0.23120000  0.62086000  0.39709000  1.0 -0.0122214663
C  C100  1  0.76880000  0.12086000  0.10291000  1.0 -0.0122214663
C  C101  1  0.61630000  0.36988000  0.62456000  1.0 -0.2597761862
C  C102  1  0.38370000  0.86988000  0.87544000  1.0 -0.2597761862
C  C103  1  0.38370000  0.63012000  0.37544000  1.0 -0.2597761862
C  C104  1  0.61630000  0.13012000  0.12456000  1.0 -0.2537599169
C  C105  1  0.56800000  0.45600000  0.65870000  1.0 -0.1863890029
C  C106  1  0.43200000  0.95600000  0.84130000  1.0 -0.1863890029
C  C107  1  0.43200000  0.54400000  0.34130000  1.0 -0.1863890029
C  C108  1  0.56800000  0.04400000  0.15870000  1.0 -0.1863890029
C  C109  1  0.15600000  0.52170000  0.66585000  1.0 -0.2597761862
C  C110  1  0.84400000  0.02170000  0.83415000  1.0 -0.2597761862
C  C111  1  0.84400000  0.47830000  0.33415000  1.0 -0.2597761862
C  C112  1  0.15600000  0.97830000  0.16585000  1.0 -0.2597761862
C  C113  1  0.38550000  0.44830000  0.64810000  0.49 -0.0883843163
C  C114  1  0.61450000  0.94830000  0.85190000  0.49 -0.0883843163
C  C115  1  0.61450000  0.55170000  0.35190000  0.49 -0.0883843163
C  C116  1  0.38550000  0.05170000  0.14810000  0.49 -0.0883843163
C  C117  1  0.30980000  0.53300000  0.67640000  0.49 -0.0504695475
C  C118  1  0.69020000  0.03300000  0.82360000  0.49 -0.0504695475
C  C119  1  0.69020000  0.46700000  0.32360000  0.49 -0.0504695475
C  C120  1  0.30980000  0.96700000  0.17640000  0.49 -0.0504695475
C  C121  1  0.32140000  0.50670000  0.64600000  0.51 -0.069382444
C  C122  1  0.67860000  0.00670000  0.85400000  0.51 -0.069382444
C  C123  1  0.67860000  0.49330000  0.35400000  0.51 -0.069382444
C  C124  1  0.32140000  0.99330000  0.14600000  0.51 -0.069382444
C  C125  1  0.42660000  0.46510000  0.68604000  0.51 -0.0556065254
C  C126  1  0.57340000  0.96510000  0.81396000  0.51 -0.0556065254
C  C127  1  0.57340000  0.53490000  0.31396000  0.51 -0.0504695475
C  C128  1  0.42660000  0.03490000  0.18604000  0.51 -0.0504695475
N  N1  1  0.27411000  0.82663000  0.50420000  1.0 -0.2113830472
N  N2  1  0.72589000  0.32663000  0.99580000  1.0 -0.2113830472
N  N3  1  0.72589000  0.17337000  0.49580000  1.0 -0.2113830472
N  N4  1  0.27411000  0.67337000  0.00420000  1.0 -0.2113830472
O  O1  1  0.76797000  0.46242000  0.56712000  1.0 -0.2597761862
O  O2  1  0.23203000  0.96242000  0.93288000  1.0 -0.2597761862
O  O3  1  0.23203000  0.53758000  0.43288000  1.0 -0.2597761862
O  O4  1  0.76797000  0.03758000  0.06712000  1.0 -0.2597761862
O  O5  1  0.96369000  0.64177000  0.04867000  1.0 -0.5489230864
O  O6  1  0.03631000  0.14177000  0.45133000  1.0 -0.5489230864
O  O7  1  0.03631000  0.35823000  0.95133000  1.0 -0.5489230864
O  O8  1  0.96369000  0.85823000  0.54867000  1.0 -0.5489230864
O  O9  1  0.82617000  0.98125000  0.44652000  1.0 -0.5627446584
O  O10  1  0.17383000  0.48125000  0.05348000  1.0 -0.5627446584
O  O11  1  0.17383000  0.01875000  0.55348000  1.0 -0.5627446584
O  O12  1  0.82617000  0.51875000  0.94652000  1.0 -0.5627446584
O  O13  1  0.57199000  0.79400000  0.23954000  1.0 -0.3823443912
O  O14  1  0.42801000  0.29400000  0.26046000  1.0 -0.3823443912
O  O15  1  0.42801000  0.20600000  0.76046000  1.0 -0.3823443912
O  O16  1  0.57199000  0.70600000  0.73954000  1.0 -0.3823443912
O  O17  1  0.80774000  0.51621000  0.05753000  1.0 -0.5489230864
O  O18  1  0.19226000  0.01621000  0.44247000  1.0 -0.5489230864
O  O19  1  0.19226000  0.48379000  0.94247000  1.0 -0.5489230864
O  O20  1  0.80774000  0.98379000  0.55753000  1.0 -0.5489230864
O  O21  1  0.98921000  0.86039000  0.43591000  1.0 -0.5308927111
O  O22  1  0.01079000  0.36039000  0.06409000  1.0 -0.5308927111
O  O23  1  0.01079000  0.13961000  0.56409000  1.0 -0.5308927111
O  O24  1  0.98921000  0.63961000  0.93591000  1.0 -0.5308927111
