# DDEC6 charges by PACMAN v1.1 (https://github.com/mtap-research/PACMAN-charge/)
data_am301365h_si_002_FSR_pacman
_symmetry_space_group_name_H-M   'P 1'
_cell_length_a   17.15000000
_cell_length_b   17.15000000
_cell_length_c   17.15000000
_cell_angle_alpha   90.00000000
_cell_angle_beta   90.00000000
_cell_angle_gamma   90.00000000
_symmetry_Int_Tables_number   1
_chemical_formula_structural   ZnH8(C2N)4
_chemical_formula_sum   'Zn12 H96 C96 N48'
_cell_volume   5044.20087500
_cell_formula_units_Z   12
loop_
 _symmetry_equiv_pos_site_id
 _symmetry_equiv_pos_as_xyz
  1  'x, y, z'
loop_
 _atom_site_type_symbol
 _atom_site_label
 _atom_site_symmetry_multiplicity
 _atom_site_fract_x
 _atom_site_fract_y
 _atom_site_fract_z
 _atom_site_occupancy
 _atom_site_charge
Zn  Zn1  1  0.50403000  0.00000000  0.74395000  1.0 0.6814890053
Zn  Zn2  1  0.50403000  0.00000000  0.24798000  1.0 0.6814890053
Zn  Zn3  1  0.25605000  0.50403000  0.00000000  1.0 0.6814890053
Zn  Zn4  1  0.75202000  0.50403000  0.00000000  1.0 0.6814890053
Zn  Zn5  1  0.00000000  0.25605000  0.49597000  1.0 0.6814890053
Zn  Zn6  1  0.00000000  0.75202000  0.49597000  1.0 0.6814890053
Zn  Zn7  1  0.00000000  0.50403000  0.74395000  1.0 0.6814890053
Zn  Zn8  1  0.00000000  0.50403000  0.24798000  1.0 0.6814890053
Zn  Zn9  1  0.50403000  0.25605000  0.00000000  1.0 0.6814890053
Zn  Zn10  1  0.50403000  0.75202000  0.00000000  1.0 0.6814890053
Zn  Zn11  1  0.25605000  0.00000000  0.49597000  1.0 0.6814890053
Zn  Zn12  1  0.75202000  0.00000000  0.49597000  1.0 0.6814890053
H  H1  1  0.62535000  0.14803000  0.71756000  1.0 0.1156500071
H  H2  1  0.12938000  0.64400000  0.22160000  1.0 0.1134841516
H  H3  1  0.38272000  0.86004000  0.71756000  1.0 0.1156500071
H  H4  1  0.87869000  0.36407000  0.22160000  1.0 0.1134841516
H  H5  1  0.38272000  0.14803000  0.27437000  1.0 0.1156500071
H  H6  1  0.87869000  0.64400000  0.77033000  1.0 0.1134841516
H  H7  1  0.62535000  0.86004000  0.27437000  1.0 0.1156500071
H  H8  1  0.12938000  0.36407000  0.77033000  1.0 0.1134841516
H  H9  1  0.28244000  0.62535000  0.85197000  1.0 0.1156500071
H  H10  1  0.77840000  0.12938000  0.35600000  1.0 0.1134841516
H  H11  1  0.28244000  0.38272000  0.13996000  1.0 0.1156500071
H  H12  1  0.77840000  0.87869000  0.63593000  1.0 0.1134841516
H  H13  1  0.72563000  0.38272000  0.85197000  1.0 0.1156500071
H  H14  1  0.22967000  0.87869000  0.35600000  1.0 0.1134841516
H  H15  1  0.72563000  0.62535000  0.13996000  1.0 0.1156500071
H  H16  1  0.22967000  0.12938000  0.63593000  1.0 0.1134841516
H  H17  1  0.14803000  0.28244000  0.37465000  1.0 0.1156500071
H  H18  1  0.64400000  0.77840000  0.87062000  1.0 0.1134841516
H  H19  1  0.86004000  0.28244000  0.61728000  1.0 0.1156500071
H  H20  1  0.36407000  0.77840000  0.12131000  1.0 0.1134841516
H  H21  1  0.14803000  0.72563000  0.61728000  1.0 0.1156500071
H  H22  1  0.64400000  0.22967000  0.12131000  1.0 0.1134841516
H  H23  1  0.86004000  0.72563000  0.37465000  1.0 0.1156500071
H  H24  1  0.36407000  0.22967000  0.87062000  1.0 0.1134841516
H  H25  1  0.14803000  0.62535000  0.71756000  1.0 0.1156500071
H  H26  1  0.64400000  0.12938000  0.22160000  1.0 0.1134841516
H  H27  1  0.86004000  0.38272000  0.71756000  1.0 0.1156500071
H  H28  1  0.36407000  0.87869000  0.22160000  1.0 0.1134841516
H  H29  1  0.14803000  0.38272000  0.27437000  1.0 0.1156500071
H  H30  1  0.64400000  0.87869000  0.77033000  1.0 0.1134841516
H  H31  1  0.86004000  0.62535000  0.27437000  1.0 0.1156500071
H  H32  1  0.36407000  0.12938000  0.77033000  1.0 0.1134841516
H  H33  1  0.62535000  0.28244000  0.85197000  1.0 0.1156500071
H  H34  1  0.12938000  0.77840000  0.35600000  1.0 0.1134841516
H  H35  1  0.38272000  0.28244000  0.13996000  1.0 0.1156500071
H  H36  1  0.87869000  0.77840000  0.63593000  1.0 0.1134841516
H  H37  1  0.38272000  0.72563000  0.85197000  1.0 0.1156500071
H  H38  1  0.87869000  0.22967000  0.35600000  1.0 0.1134841516
H  H39  1  0.62535000  0.72563000  0.13996000  1.0 0.1156500071
H  H40  1  0.12938000  0.22967000  0.63593000  1.0 0.1134841516
H  H41  1  0.28244000  0.14803000  0.37465000  1.0 0.1156500071
H  H42  1  0.77840000  0.64400000  0.87062000  1.0 0.1134841516
H  H43  1  0.28244000  0.86004000  0.61728000  1.0 0.1156500071
H  H44  1  0.77840000  0.36407000  0.12131000  1.0 0.1134841516
H  H45  1  0.72563000  0.14803000  0.61728000  1.0 0.1156500071
H  H46  1  0.22967000  0.64400000  0.12131000  1.0 0.1134841516
H  H47  1  0.72563000  0.86004000  0.37465000  1.0 0.1156500071
H  H48  1  0.22967000  0.36407000  0.87062000  1.0 0.1134841516
H  H49  1  0.54500000  0.92084000  0.56967000  0.5 0.0799319278
H  H50  1  0.63060000  0.89694000  0.54804000  0.5 0.1134841516
H  H51  1  0.04904000  0.42488000  0.07370000  0.5 0.0799319278
H  H52  1  0.13464000  0.40097000  0.05208000  0.5 0.1134841516
H  H53  1  0.46307000  0.08722000  0.56967000  0.5 0.0799319278
H  H54  1  0.37746000  0.11113000  0.54804000  0.5 0.1156500071
H  H55  1  0.95903000  0.58319000  0.07370000  0.5 0.0799319278
H  H56  1  0.87343000  0.60710000  0.05208000  0.5 0.1156500071
H  H57  1  0.46307000  0.92084000  0.42227000  0.5 0.0799319278
H  H58  1  0.37746000  0.89694000  0.44389000  0.5 0.1134841516
H  H59  1  0.95903000  0.42488000  0.91823000  0.5 0.0799319278
H  H60  1  0.87343000  0.40097000  0.93985000  0.5 0.1156500071
H  H61  1  0.54500000  0.08722000  0.42227000  0.5 0.0799319278
H  H62  1  0.63060000  0.11113000  0.44389000  0.5 0.1156500071
H  H63  1  0.04904000  0.58319000  0.91823000  0.5 0.0799319278
H  H64  1  0.13464000  0.60710000  0.93985000  0.5 0.1134841516
H  H65  1  0.43033000  0.54500000  0.07916000  0.5 0.0799319278
H  H66  1  0.45196000  0.63060000  0.10306000  0.5 0.1134841516
H  H67  1  0.92630000  0.04904000  0.57512000  0.5 0.0799319278
H  H68  1  0.94792000  0.13464000  0.59903000  0.5 0.1134841516
H  H69  1  0.43033000  0.46307000  0.91278000  0.5 0.0799319278
H  H70  1  0.45196000  0.37746000  0.88887000  0.5 0.1156500071
H  H71  1  0.92630000  0.95903000  0.41681000  0.5 0.0799319278
H  H72  1  0.94792000  0.87343000  0.39290000  0.5 0.1134841516
H  H73  1  0.57773000  0.46307000  0.07916000  0.5 0.0799319278
H  H74  1  0.55611000  0.37746000  0.10306000  0.5 0.1134841516
H  H75  1  0.08177000  0.95903000  0.57512000  0.5 0.0799319278
H  H76  1  0.06015000  0.87343000  0.59903000  0.5 0.1156500071
H  H77  1  0.57773000  0.54500000  0.91278000  0.5 0.0799319278
H  H78  1  0.55611000  0.63060000  0.88887000  0.5 0.1156500071
H  H79  1  0.08177000  0.04904000  0.41681000  0.5 0.0799319278
H  H80  1  0.06015000  0.13464000  0.39290000  0.5 0.1156500071
H  H81  1  0.92084000  0.43033000  0.45500000  0.5 0.0799319278
H  H82  1  0.89694000  0.45196000  0.36940000  0.5 0.1134841516
H  H83  1  0.42488000  0.92630000  0.95096000  0.5 0.0799319278
H  H84  1  0.40097000  0.94792000  0.86536000  0.5 0.1134841516
H  H85  1  0.08722000  0.43033000  0.53693000  0.5 0.0799319278
H  H86  1  0.11113000  0.45196000  0.62254000  0.5 0.1156500071
H  H87  1  0.58319000  0.92630000  0.04097000  0.5 0.0799319278
H  H88  1  0.60710000  0.94792000  0.12657000  0.5 0.1156500071
H  H89  1  0.92084000  0.57773000  0.53693000  0.5 0.0799319278
H  H90  1  0.89694000  0.55611000  0.62254000  0.5 0.1134841516
H  H91  1  0.42488000  0.08177000  0.04097000  0.5 0.0799319278
H  H92  1  0.40097000  0.06015000  0.12657000  0.5 0.1156500071
H  H93  1  0.08722000  0.57773000  0.45500000  0.5 0.0799319278
H  H94  1  0.11113000  0.55611000  0.36940000  0.5 0.1156500071
H  H95  1  0.58319000  0.08177000  0.95096000  0.5 0.0799319278
H  H96  1  0.60710000  0.06015000  0.86536000  0.5 0.1134841516
H  H97  1  0.92084000  0.54500000  0.56967000  0.5 0.0799319278
H  H98  1  0.89694000  0.63060000  0.54804000  0.5 0.1134841516
H  H99  1  0.42488000  0.04904000  0.07370000  0.5 0.0799319278
H  H100  1  0.40097000  0.13464000  0.05208000  0.5 0.1134841516
H  H101  1  0.08722000  0.46307000  0.56967000  0.5 0.0799319278
H  H102  1  0.11113000  0.37746000  0.54804000  0.5 0.1156500071
H  H103  1  0.58319000  0.95903000  0.07370000  0.5 0.0799319278
H  H104  1  0.60710000  0.87343000  0.05208000  0.5 0.1156500071
H  H105  1  0.92084000  0.46307000  0.42227000  0.5 0.0799319278
H  H106  1  0.89694000  0.37746000  0.44389000  0.5 0.1134841516
H  H107  1  0.42488000  0.95903000  0.91823000  0.5 0.0799319278
H  H108  1  0.40097000  0.87343000  0.93985000  0.5 0.1156500071
H  H109  1  0.08722000  0.54500000  0.42227000  0.5 0.0799319278
H  H110  1  0.11113000  0.63060000  0.44389000  0.5 0.1156500071
H  H111  1  0.58319000  0.04904000  0.91823000  0.5 0.0799319278
H  H112  1  0.60710000  0.13464000  0.93985000  0.5 0.1134841516
H  H113  1  0.54500000  0.43033000  0.07916000  0.5 0.0799319278
H  H114  1  0.63060000  0.45196000  0.10306000  0.5 0.1134841516
H  H115  1  0.04904000  0.92630000  0.57512000  0.5 0.0799319278
H  H116  1  0.13464000  0.94792000  0.59903000  0.5 0.1134841516
H  H117  1  0.46307000  0.43033000  0.91278000  0.5 0.0799319278
H  H118  1  0.37746000  0.45196000  0.88887000  0.5 0.1156500071
H  H119  1  0.95903000  0.92630000  0.41681000  0.5 0.0799319278
H  H120  1  0.87343000  0.94792000  0.39290000  0.5 0.1156500071
H  H121  1  0.46307000  0.57773000  0.07916000  0.5 0.0799319278
H  H122  1  0.37746000  0.55611000  0.10306000  0.5 0.1134841516
H  H123  1  0.95903000  0.08177000  0.57512000  0.5 0.0799319278
H  H124  1  0.87343000  0.06015000  0.59903000  0.5 0.1156500071
H  H125  1  0.54500000  0.57773000  0.91278000  0.5 0.0799319278
H  H126  1  0.63060000  0.55611000  0.88887000  0.5 0.1156500071
H  H127  1  0.04904000  0.08177000  0.41681000  0.5 0.0799319278
H  H128  1  0.13464000  0.06015000  0.39290000  0.5 0.1134841516
H  H129  1  0.43033000  0.92084000  0.45500000  0.5 0.0799319278
H  H130  1  0.45196000  0.89694000  0.36940000  0.5 0.1134841516
H  H131  1  0.92630000  0.42488000  0.95096000  0.5 0.0799319278
H  H132  1  0.94792000  0.40097000  0.86536000  0.5 0.1134841516
H  H133  1  0.43033000  0.08722000  0.53693000  0.5 0.0799319278
H  H134  1  0.45196000  0.11113000  0.62254000  0.5 0.1156500071
H  H135  1  0.92630000  0.58319000  0.04097000  0.5 0.0799319278
H  H136  1  0.94792000  0.60710000  0.12657000  0.5 0.1156500071
H  H137  1  0.57773000  0.92084000  0.53693000  0.5 0.0799319278
H  H138  1  0.55611000  0.89694000  0.62254000  0.5 0.1134841516
H  H139  1  0.08177000  0.42488000  0.04097000  0.5 0.0799319278
H  H140  1  0.06015000  0.40097000  0.12657000  0.5 0.1156500071
H  H141  1  0.57773000  0.08722000  0.45500000  0.5 0.0799319278
H  H142  1  0.55611000  0.11113000  0.36940000  0.5 0.1156500071
H  H143  1  0.08177000  0.58319000  0.95096000  0.5 0.0799319278
H  H144  1  0.06015000  0.60710000  0.86536000  0.5 0.1134841516
C  C1  1  0.63332000  0.10667000  0.68072000  1.0 -0.0579158986
C  C2  1  0.13736000  0.60263000  0.18476000  1.0 -0.0539362193
C  C3  1  0.37475000  0.90140000  0.68072000  1.0 -0.0579158986
C  C4  1  0.87071000  0.40544000  0.18476000  1.0 -0.0539362193
C  C5  1  0.37475000  0.10667000  0.31121000  1.0 -0.0579158986
C  C6  1  0.87071000  0.60263000  0.80717000  1.0 -0.0579158986
C  C7  1  0.63332000  0.90140000  0.31121000  1.0 -0.0579158986
C  C8  1  0.13736000  0.40544000  0.80717000  1.0 -0.0539362193
C  C9  1  0.31928000  0.63332000  0.89333000  1.0 -0.0579158986
C  C10  1  0.81524000  0.13736000  0.39737000  1.0 -0.0539362193
C  C11  1  0.31928000  0.37475000  0.09860000  1.0 -0.0579158986
C  C12  1  0.81524000  0.87071000  0.59456000  1.0 -0.0539362193
C  C13  1  0.68879000  0.37475000  0.89333000  1.0 -0.0579158986
C  C14  1  0.19283000  0.87071000  0.39737000  1.0 -0.0579158986
C  C15  1  0.68879000  0.63332000  0.09860000  1.0 -0.0579158986
C  C16  1  0.19283000  0.13736000  0.59456000  1.0 -0.0539362193
C  C17  1  0.10667000  0.31928000  0.36668000  1.0 -0.0579158986
C  C18  1  0.60263000  0.81524000  0.86264000  1.0 -0.0539362193
C  C19  1  0.90140000  0.31928000  0.62525000  1.0 -0.0579158986
C  C20  1  0.40544000  0.81524000  0.12929000  1.0 -0.0579158986
C  C21  1  0.10667000  0.68879000  0.62525000  1.0 -0.0579158986
C  C22  1  0.60263000  0.19283000  0.12929000  1.0 -0.0579158986
C  C23  1  0.90140000  0.68879000  0.36668000  1.0 -0.0579158986
C  C24  1  0.40544000  0.19283000  0.86264000  1.0 -0.0539362193
C  C25  1  0.10667000  0.63332000  0.68072000  1.0 -0.0579158986
C  C26  1  0.60263000  0.13736000  0.18476000  1.0 -0.0539362193
C  C27  1  0.90140000  0.37475000  0.68072000  1.0 -0.0579158986
C  C28  1  0.40544000  0.87071000  0.18476000  1.0 -0.0579158986
C  C29  1  0.10667000  0.37475000  0.31121000  1.0 -0.0579158986
C  C30  1  0.60263000  0.87071000  0.80717000  1.0 -0.0579158986
C  C31  1  0.90140000  0.63332000  0.31121000  1.0 -0.0579158986
C  C32  1  0.40544000  0.13736000  0.80717000  1.0 -0.0539362193
C  C33  1  0.63332000  0.31928000  0.89333000  1.0 -0.0579158986
C  C34  1  0.13736000  0.81524000  0.39737000  1.0 -0.0539362193
C  C35  1  0.37475000  0.31928000  0.09860000  1.0 -0.0579158986
C  C36  1  0.87071000  0.81524000  0.59456000  1.0 -0.0579158986
C  C37  1  0.37475000  0.68879000  0.89333000  1.0 -0.0579158986
C  C38  1  0.87071000  0.19283000  0.39737000  1.0 -0.0579158986
C  C39  1  0.63332000  0.68879000  0.09860000  1.0 -0.0579158986
C  C40  1  0.13736000  0.19283000  0.59456000  1.0 -0.0539362193
C  C41  1  0.31928000  0.10667000  0.36668000  1.0 -0.0579158986
C  C42  1  0.81524000  0.60263000  0.86264000  1.0 -0.0539362193
C  C43  1  0.31928000  0.90140000  0.62525000  1.0 -0.0579158986
C  C44  1  0.81524000  0.40544000  0.12929000  1.0 -0.0539362193
C  C45  1  0.68879000  0.10667000  0.62525000  1.0 -0.0579158986
C  C46  1  0.19283000  0.60263000  0.12929000  1.0 -0.0579158986
C  C47  1  0.68879000  0.90140000  0.36668000  1.0 -0.0579158986
C  C48  1  0.19283000  0.40544000  0.86264000  1.0 -0.0539362193
C  C49  1  0.62644000  0.99187000  0.61837000  1.0 0.317242622
C  C50  1  0.59876000  0.91390000  0.59070000  1.0 -0.4468448315
C  C51  1  0.13047000  0.49590000  0.12240000  1.0 0.3435074236
C  C52  1  0.10280000  0.41793000  0.09473000  1.0 -0.4427577847
C  C53  1  0.38163000  0.01620000  0.61837000  1.0 0.317242622
C  C54  1  0.40930000  0.09417000  0.59070000  1.0 -0.4427577847
C  C55  1  0.87760000  0.51217000  0.12240000  1.0 0.3435074236
C  C56  1  0.90527000  0.59013000  0.09473000  1.0 -0.4468448315
C  C57  1  0.38163000  0.99187000  0.37356000  1.0 0.317242622
C  C58  1  0.40930000  0.91390000  0.40124000  1.0 -0.4468448315
C  C59  1  0.87760000  0.49590000  0.86953000  1.0 0.3435074236
C  C60  1  0.90527000  0.41793000  0.89720000  1.0 -0.4427577847
C  C61  1  0.62644000  0.01620000  0.37356000  1.0 0.317242622
C  C62  1  0.59876000  0.09417000  0.40124000  1.0 -0.4427577847
C  C63  1  0.13047000  0.51217000  0.86953000  1.0 0.3465165045
C  C64  1  0.10280000  0.59013000  0.89720000  1.0 -0.4427577847
C  C65  1  0.38163000  0.62644000  0.00813000  1.0 0.317242622
C  C66  1  0.40930000  0.59876000  0.08610000  1.0 -0.4468448315
C  C67  1  0.87760000  0.13047000  0.50410000  1.0 0.3435074236
C  C68  1  0.90527000  0.10280000  0.58207000  1.0 -0.4427577847
C  C69  1  0.38163000  0.38163000  0.98380000  1.0 0.317242622
C  C70  1  0.40930000  0.40930000  0.90583000  1.0 -0.4427577847
C  C71  1  0.87760000  0.87760000  0.48783000  1.0 0.3435074236
C  C72  1  0.90527000  0.90527000  0.40987000  1.0 -0.4468448315
C  C73  1  0.62644000  0.38163000  0.00813000  1.0 0.317242622
C  C74  1  0.59876000  0.40930000  0.08610000  1.0 -0.4468448315
C  C75  1  0.13047000  0.87760000  0.50410000  1.0 0.3435074236
C  C76  1  0.10280000  0.90527000  0.58207000  1.0 -0.4427577847
C  C77  1  0.62644000  0.62644000  0.98380000  1.0 0.317242622
C  C78  1  0.59876000  0.59876000  0.90583000  1.0 -0.4427577847
C  C79  1  0.13047000  0.13047000  0.48783000  1.0 0.3465165045
C  C80  1  0.10280000  0.10280000  0.40987000  1.0 -0.4427577847
C  C81  1  0.99187000  0.38163000  0.37356000  1.0 0.317242622
C  C82  1  0.91390000  0.40930000  0.40124000  1.0 -0.4468448315
C  C83  1  0.49590000  0.87760000  0.86953000  1.0 0.3435074236
C  C84  1  0.41793000  0.90527000  0.89720000  1.0 -0.4427577847
C  C85  1  0.01620000  0.38163000  0.61837000  1.0 0.317242622
C  C86  1  0.09417000  0.40930000  0.59070000  1.0 -0.4427577847
C  C87  1  0.51217000  0.87760000  0.12240000  1.0 0.3435074236
C  C88  1  0.59013000  0.90527000  0.09473000  1.0 -0.4468448315
C  C89  1  0.99187000  0.62644000  0.61837000  1.0 0.317242622
C  C90  1  0.91390000  0.59876000  0.59070000  1.0 -0.4468448315
C  C91  1  0.49590000  0.13047000  0.12240000  1.0 0.3435074236
C  C92  1  0.41793000  0.10280000  0.09473000  1.0 -0.4427577847
C  C93  1  0.01620000  0.62644000  0.37356000  1.0 0.317242622
C  C94  1  0.09417000  0.59876000  0.40124000  1.0 -0.4427577847
C  C95  1  0.51217000  0.13047000  0.86953000  1.0 0.3465165045
C  C96  1  0.59013000  0.10280000  0.89720000  1.0 -0.4427577847
N  N1  1  0.59176000  0.03753000  0.67749000  1.0 -0.3609844798
N  N2  1  0.09580000  0.53349000  0.18152000  1.0 -0.3710084288
N  N3  1  0.41631000  0.97054000  0.67749000  1.0 -0.3609844798
N  N4  1  0.91227000  0.47457000  0.18152000  1.0 -0.3710084288
N  N5  1  0.41631000  0.03753000  0.31444000  1.0 -0.3609844798
N  N6  1  0.91227000  0.53349000  0.81041000  1.0 -0.3710084288
N  N7  1  0.59176000  0.97054000  0.31444000  1.0 -0.3609844798
N  N8  1  0.09580000  0.47457000  0.81041000  1.0 -0.3710084288
N  N9  1  0.32251000  0.59176000  0.96247000  1.0 -0.3609844798
N  N10  1  0.81848000  0.09580000  0.46651000  1.0 -0.3710084288
N  N11  1  0.32251000  0.41631000  0.02946000  1.0 -0.3609844798
N  N12  1  0.81848000  0.91227000  0.52543000  1.0 -0.3710084288
N  N13  1  0.68556000  0.41631000  0.96247000  1.0 -0.3609844798
N  N14  1  0.18959000  0.91227000  0.46651000  1.0 -0.3710084288
N  N15  1  0.68556000  0.59176000  0.02946000  1.0 -0.3609844798
N  N16  1  0.18959000  0.09580000  0.52543000  1.0 -0.3710084288
N  N17  1  0.03753000  0.32251000  0.40824000  1.0 -0.3609844798
N  N18  1  0.53349000  0.81848000  0.90420000  1.0 -0.3710084288
N  N19  1  0.97054000  0.32251000  0.58369000  1.0 -0.3609844798
N  N20  1  0.47457000  0.81848000  0.08773000  1.0 -0.3710084288
N  N21  1  0.03753000  0.68556000  0.58369000  1.0 -0.3609844798
N  N22  1  0.53349000  0.18959000  0.08773000  1.0 -0.3710084288
N  N23  1  0.97054000  0.68556000  0.40824000  1.0 -0.3609844798
N  N24  1  0.47457000  0.18959000  0.90420000  1.0 -0.3710084288
N  N25  1  0.03753000  0.59176000  0.67749000  1.0 -0.3609844798
N  N26  1  0.53349000  0.09580000  0.18152000  1.0 -0.3710084288
N  N27  1  0.97054000  0.41631000  0.67749000  1.0 -0.3609844798
N  N28  1  0.47457000  0.91227000  0.18152000  1.0 -0.3710084288
N  N29  1  0.03753000  0.41631000  0.31444000  1.0 -0.3609844798
N  N30  1  0.53349000  0.91227000  0.81041000  1.0 -0.3710084288
N  N31  1  0.97054000  0.59176000  0.31444000  1.0 -0.3609844798
N  N32  1  0.47457000  0.09580000  0.81041000  1.0 -0.3710084288
N  N33  1  0.59176000  0.32251000  0.96247000  1.0 -0.3609844798
N  N34  1  0.09580000  0.81848000  0.46651000  1.0 -0.3710084288
N  N35  1  0.41631000  0.32251000  0.02946000  1.0 -0.3609844798
N  N36  1  0.91227000  0.81848000  0.52543000  1.0 -0.3710084288
N  N37  1  0.41631000  0.68556000  0.96247000  1.0 -0.3609844798
N  N38  1  0.91227000  0.18959000  0.46651000  1.0 -0.3710084288
N  N39  1  0.59176000  0.68556000  0.02946000  1.0 -0.3609844798
N  N40  1  0.09580000  0.18959000  0.52543000  1.0 -0.3710084288
N  N41  1  0.32251000  0.03753000  0.40824000  1.0 -0.3609844798
N  N42  1  0.81848000  0.53349000  0.90420000  1.0 -0.3710084288
N  N43  1  0.32251000  0.97054000  0.58369000  1.0 -0.3609844798
N  N44  1  0.81848000  0.47457000  0.08773000  1.0 -0.3710084288
N  N45  1  0.68556000  0.03753000  0.58369000  1.0 -0.3609844798
N  N46  1  0.18959000  0.53349000  0.08773000  1.0 -0.3710084288
N  N47  1  0.68556000  0.97054000  0.40824000  1.0 -0.3609844798
N  N48  1  0.18959000  0.47457000  0.90420000  1.0 -0.3710084288
