# DDEC6 charges by PACMAN v1.1 (https://github.com/mtap-research/PACMAN-charge/)
data_2021[Zn][nan]3[ASR]12
_chemical_formula_sum              "Zn12 H72 C104 N56 O32"
_cell_length_a       17.624
_cell_length_b       18
_cell_length_c       19.76
_cell_angle_alpha    90
_cell_angle_beta     90
_cell_angle_gamma    90

_symmetry_space_group_name_H-M    "P 1"
_symmetry_Int_Tables_number       1

loop_
  _symmetry_equiv_pos_as_xyz
  'x, y, z'

loop_
  _atom_site_type_symbol
  _atom_site_label
  _atom_site_symmetry_multiplicity
  _atom_site_fract_x
  _atom_site_fract_y
  _atom_site_fract_z
  _atom_site_occupancy
  _atom_site_charge
Zn  Zn1       1.0  0.25000  0.29446  0.00000  1.0000 0.8281809068
Zn  Zn2       1.0  0.75000  0.20554  0.50000  1.0000 0.8281809068
Zn  Zn3       1.0  0.75000  0.70554  0.00000  1.0000 0.8281809068
Zn  Zn4       1.0  0.25000  0.79446  0.50000  1.0000 0.8281809068
Zn  Zn5       1.0  0.49309  0.50657  0.90741  1.0000 0.6917500174
Zn  Zn6       1.0  0.99309  0.99343  0.59259  1.0000 0.6917500174
Zn  Zn7       1.0  0.00691  0.50657  0.09259  1.0000 0.6917500174
Zn  Zn8       1.0  0.50691  0.99343  0.40741  1.0000 0.6917500174
Zn  Zn9       1.0  0.50691  0.49343  0.09259  1.0000 0.6917500174
Zn  Zn10      1.0  0.00691  0.00657  0.40741  1.0000 0.6917500174
Zn  Zn11      1.0  0.99309  0.49343  0.90741  1.0000 0.6917500174
Zn  Zn12      1.0  0.49309  0.00657  0.59259  1.0000 0.6917500174
H   H1        1.0  0.27692  0.57403  0.83626  1.0000 0.1415533387
H   H2        1.0  0.77692  0.92597  0.66374  1.0000 0.1415533387
H   H3        1.0  0.22308  0.57403  0.16374  1.0000 0.1415533387
H   H4        1.0  0.72308  0.92597  0.33626  1.0000 0.1415533387
H   H5        1.0  0.72308  0.42597  0.16374  1.0000 0.1415533387
H   H6        1.0  0.22308  0.07403  0.33626  1.0000 0.1415533387
H   H7        1.0  0.77692  0.42597  0.83626  1.0000 0.1415533387
H   H8        1.0  0.27692  0.07403  0.66374  1.0000 0.1415533387
H   H9        1.0  0.17947  0.66775  0.67476  1.0000 0.1415533387
H   H10       1.0  0.67947  0.83225  0.82524  1.0000 0.1415533387
H   H11       1.0  0.32053  0.66775  0.32524  1.0000 0.1415533387
H   H12       1.0  0.82053  0.83225  0.17476  1.0000 0.1415533387
H   H13       1.0  0.82053  0.33225  0.32524  1.0000 0.1415533387
H   H14       1.0  0.32053  0.16775  0.17476  1.0000 0.1415533387
H   H15       1.0  0.67947  0.33225  0.67476  1.0000 0.1415533387
H   H16       1.0  0.17947  0.16775  0.82524  1.0000 0.1415533387
H   H17       1.0  0.40490  0.65376  0.68713  1.0000 0.1415533387
H   H18       1.0  0.90490  0.84624  0.81287  1.0000 0.1415533387
H   H19       1.0  0.09510  0.65376  0.31287  1.0000 0.1415533387
H   H20       1.0  0.59510  0.84624  0.18713  1.0000 0.1415533387
H   H21       1.0  0.59510  0.34624  0.31287  1.0000 0.1415533387
H   H22       1.0  0.09510  0.15376  0.18713  1.0000 0.1415533387
H   H23       1.0  0.90490  0.34624  0.68713  1.0000 0.1415533387
H   H24       1.0  0.40490  0.15376  0.81287  1.0000 0.1415533387
H   H25       1.0  0.37386  0.34782  0.85764  1.0000 0.1679314283
H   H26       1.0  0.87386  0.15218  0.64236  1.0000 0.1679314283
H   H27       1.0  0.12614  0.34782  0.14236  1.0000 0.1679314283
H   H28       1.0  0.62614  0.15218  0.35764  1.0000 0.1679314283
H   H29       1.0  0.62614  0.65218  0.14236  1.0000 0.1679314283
H   H30       1.0  0.12614  0.84782  0.35764  1.0000 0.1679314283
H   H31       1.0  0.87386  0.65218  0.85764  1.0000 0.1679314283
H   H32       1.0  0.37386  0.84782  0.64236  1.0000 0.1679314283
H   H33       1.0  0.29454  0.38138  0.87648  1.0000 0.1548200226
H   H34       1.0  0.79454  0.11862  0.62352  1.0000 0.158213798
H   H35       1.0  0.20546  0.38138  0.12352  1.0000 0.1548200226
H   H36       1.0  0.70546  0.11862  0.37648  1.0000 0.1548200226
H   H37       1.0  0.70546  0.61862  0.12352  1.0000 0.1548200226
H   H38       1.0  0.20546  0.88138  0.37648  1.0000 0.1548200226
H   H39       1.0  0.79454  0.61862  0.87648  1.0000 0.1548200226
H   H40       1.0  0.29454  0.88138  0.62352  1.0000 0.1548200226
H   H41       1.0  0.36051  0.43378  0.85295  1.0000 0.158213798
H   H42       1.0  0.86051  0.06622  0.64705  1.0000 0.158213798
H   H43       1.0  0.13949  0.43378  0.14705  1.0000 0.158213798
H   H44       1.0  0.63949  0.06622  0.35295  1.0000 0.158213798
H   H45       1.0  0.63949  0.56622  0.14705  1.0000 0.158213798
H   H46       1.0  0.13949  0.93378  0.35295  1.0000 0.158213798
H   H47       1.0  0.86051  0.56622  0.85295  1.0000 0.158213798
H   H48       1.0  0.36051  0.93378  0.64705  1.0000 0.158213798
H   H49       1.0  0.41404  0.37338  0.15223  1.0000 0.1679314283
H   H50       1.0  0.91404  0.12662  0.34777  1.0000 0.1679314283
H   H51       1.0  0.08596  0.37338  0.84777  1.0000 0.1679314283
H   H52       1.0  0.58596  0.12662  0.65223  1.0000 0.1679314283
H   H53       1.0  0.58596  0.62662  0.84777  1.0000 0.1679314283
H   H54       1.0  0.08596  0.87338  0.65223  1.0000 0.1679314283
H   H55       1.0  0.91404  0.62662  0.15223  1.0000 0.1679314283
H   H56       1.0  0.41404  0.87338  0.34777  1.0000 0.1679314283
H   H57       1.0  0.32932  0.39885  0.14539  1.0000 0.158213798
H   H58       1.0  0.82932  0.10115  0.35461  1.0000 0.158213798
H   H59       1.0  0.17068  0.39885  0.85461  1.0000 0.158213798
H   H60       1.0  0.67068  0.10115  0.64539  1.0000 0.158213798
H   H61       1.0  0.67068  0.60115  0.85461  1.0000 0.158213798
H   H62       1.0  0.17068  0.89885  0.64539  1.0000 0.158213798
H   H63       1.0  0.82932  0.60115  0.14539  1.0000 0.158213798
H   H64       1.0  0.32932  0.89885  0.35461  1.0000 0.158213798
H   H65       1.0  0.35189  0.31656  0.12892  1.0000 0.1679314283
H   H66       1.0  0.85189  0.18344  0.37108  1.0000 0.1679314283
H   H67       1.0  0.14811  0.31656  0.87108  1.0000 0.1679314283
H   H68       1.0  0.64811  0.18344  0.62892  1.0000 0.1679314283
H   H69       1.0  0.64811  0.68344  0.87108  1.0000 0.1679314283
H   H70       1.0  0.14811  0.81656  0.62892  1.0000 0.1679314283
H   H71       1.0  0.85189  0.68344  0.12892  1.0000 0.1679314283
H   H72       1.0  0.35189  0.81656  0.37108  1.0000 0.1679314283
C   C1        1.0  0.42140  0.58790  0.80450  1.0000 0.5584086454
C   C2        1.0  0.92140  0.91210  0.69550  1.0000 0.5584086454
C   C3        1.0  0.07860  0.58790  0.19550  1.0000 0.5584086454
C   C4        1.0  0.57860  0.91210  0.30450  1.0000 0.5584086454
C   C5        1.0  0.57860  0.41210  0.19550  1.0000 0.5584086454
C   C6        1.0  0.07860  0.08790  0.30450  1.0000 0.5584086454
C   C7        1.0  0.92140  0.41210  0.80450  1.0000 0.5584086454
C   C8        1.0  0.42140  0.08790  0.69550  1.0000 0.5584086454
C   C9        1.0  0.35090  0.61050  0.76810  1.0000 -0.0097340565
C   C10       1.0  0.85090  0.88950  0.73190  1.0000 -0.0097340565
C   C11       1.0  0.14910  0.61050  0.23190  1.0000 -0.0097340565
C   C12       1.0  0.64910  0.88950  0.26810  1.0000 -0.0097340565
C   C13       1.0  0.64910  0.38950  0.23190  1.0000 -0.0097340565
C   C14       1.0  0.14910  0.11050  0.26810  1.0000 -0.0097340565
C   C15       1.0  0.85090  0.38950  0.76810  1.0000 -0.0097340565
C   C16       1.0  0.35090  0.11050  0.73190  1.0000 -0.0097340565
C   C17       1.0  0.28100  0.59710  0.79430  1.0000 -0.0976615772
C   C18       1.0  0.78100  0.90290  0.70570  1.0000 -0.0976615772
C   C19       1.0  0.21900  0.59710  0.20570  1.0000 -0.0976615772
C   C20       1.0  0.71900  0.90290  0.29430  1.0000 -0.0976615772
C   C21       1.0  0.71900  0.40290  0.20570  1.0000 -0.0976615772
C   C22       1.0  0.21900  0.09710  0.29430  1.0000 -0.0976615772
C   C23       1.0  0.78100  0.40290  0.79430  1.0000 -0.0976615772
C   C24       1.0  0.28100  0.09710  0.70570  1.0000 -0.0976615772
C   C25       1.0  0.21570  0.61710  0.75980  1.0000 0.0487716068
C   C26       1.0  0.71570  0.88290  0.74020  1.0000 0.0487716068
C   C27       1.0  0.28430  0.61710  0.24020  1.0000 0.0487716068
C   C28       1.0  0.78430  0.88290  0.25980  1.0000 0.0487716068
C   C29       1.0  0.78430  0.38290  0.24020  1.0000 0.0487716068
C   C30       1.0  0.28430  0.11710  0.25980  1.0000 0.0487716068
C   C31       1.0  0.71570  0.38290  0.75980  1.0000 0.0487716068
C   C32       1.0  0.21570  0.11710  0.74020  1.0000 0.0487716068
C   C33       1.0  0.14080  0.60160  0.78730  1.0000 0.2505635968
C   C34       1.0  0.64080  0.89840  0.71270  1.0000 0.2505635968
C   C35       1.0  0.35920  0.60160  0.21270  1.0000 0.2505635968
C   C36       1.0  0.85920  0.89840  0.28730  1.0000 0.2505635968
C   C37       1.0  0.85920  0.39840  0.21270  1.0000 0.2505635968
C   C38       1.0  0.35920  0.10160  0.28730  1.0000 0.2505635968
C   C39       1.0  0.64080  0.39840  0.78730  1.0000 0.2505635968
C   C40       1.0  0.14080  0.10160  0.71270  1.0000 0.2505635968
C   C41       1.0  0.22280  0.65260  0.69790  1.0000 -0.0976615772
C   C42       1.0  0.72280  0.84740  0.80210  1.0000 -0.0976615772
C   C43       1.0  0.27720  0.65260  0.30210  1.0000 -0.0976615772
C   C44       1.0  0.77720  0.84740  0.19790  1.0000 -0.0976615772
C   C45       1.0  0.77720  0.34740  0.30210  1.0000 -0.0976615772
C   C46       1.0  0.27720  0.15260  0.19790  1.0000 -0.0976615772
C   C47       1.0  0.72280  0.34740  0.69790  1.0000 -0.0976615772
C   C48       1.0  0.22280  0.15260  0.80210  1.0000 -0.0976615772
C   C49       1.0  0.29290  0.66570  0.67028  1.0000 -0.0032852101
C   C50       1.0  0.79290  0.83430  0.82972  1.0000 -0.0032852101
C   C51       1.0  0.20710  0.66570  0.32972  1.0000 -0.0032852101
C   C52       1.0  0.70710  0.83430  0.17028  1.0000 -0.0032852101
C   C53       1.0  0.70710  0.33430  0.32972  1.0000 -0.0032852101
C   C54       1.0  0.20710  0.16570  0.17028  1.0000 -0.0032852101
C   C55       1.0  0.79290  0.33430  0.67028  1.0000 -0.0032852101
C   C56       1.0  0.29290  0.16570  0.82972  1.0000 -0.0032852101
C   C57       1.0  0.29940  0.70320  0.60261  1.0000 0.5496101207
C   C58       1.0  0.79940  0.79680  0.89739  1.0000 0.5496101207
C   C59       1.0  0.20060  0.70320  0.39739  1.0000 0.5496101207
C   C60       1.0  0.70060  0.79680  0.10261  1.0000 0.5496101207
C   C61       1.0  0.70060  0.29680  0.39739  1.0000 0.5496101207
C   C62       1.0  0.20060  0.20320  0.10261  1.0000 0.5496101207
C   C63       1.0  0.79940  0.29680  0.60261  1.0000 0.5496101207
C   C64       1.0  0.29940  0.20320  0.89739  1.0000 0.5496101207
C   C65       1.0  0.35720  0.64480  0.70550  1.0000 -0.0877341242
C   C66       1.0  0.85720  0.85520  0.79450  1.0000 -0.0877341242
C   C67       1.0  0.14280  0.64480  0.29450  1.0000 -0.0877341242
C   C68       1.0  0.64280  0.85520  0.20550  1.0000 -0.0877341242
C   C69       1.0  0.64280  0.35520  0.29450  1.0000 -0.0877341242
C   C70       1.0  0.14280  0.14480  0.20550  1.0000 -0.0877341242
C   C71       1.0  0.85720  0.35520  0.70550  1.0000 -0.0877341242
C   C72       1.0  0.35720  0.14480  0.79450  1.0000 -0.0877341242
C   C73       1.0  0.37340  0.39790  0.94918  1.0000 0.40429105
C   C74       1.0  0.87340  0.10210  0.55082  1.0000 0.40429105
C   C75       1.0  0.12660  0.39790  0.05082  1.0000 0.40429105
C   C76       1.0  0.62660  0.10210  0.44918  1.0000 0.40429105
C   C77       1.0  0.62660  0.60210  0.05082  1.0000 0.40429105
C   C78       1.0  0.12660  0.89790  0.44918  1.0000 0.40429105
C   C79       1.0  0.87340  0.60210  0.94918  1.0000 0.40429105
C   C80       1.0  0.37340  0.89790  0.55082  1.0000 0.40429105
C   C81       1.0  0.38190  0.38830  0.05510  1.0000 0.4062358416
C   C82       1.0  0.88190  0.11170  0.44490  1.0000 0.4062358416
C   C83       1.0  0.11810  0.38830  0.94490  1.0000 0.4062358416
C   C84       1.0  0.61810  0.11170  0.55510  1.0000 0.4062358416
C   C85       1.0  0.61810  0.61170  0.94490  1.0000 0.4062358416
C   C86       1.0  0.11810  0.88830  0.55510  1.0000 0.4062358416
C   C87       1.0  0.88190  0.61170  0.05510  1.0000 0.4062358416
C   C88       1.0  0.38190  0.88830  0.44490  1.0000 0.4062358416
C   C89       1.0  0.34840  0.38950  0.87770  1.0000 -0.5255080306
C   C90       1.0  0.84840  0.11050  0.62230  1.0000 -0.5230247429
C   C91       1.0  0.15160  0.38950  0.12230  1.0000 -0.5255080306
C   C92       1.0  0.65160  0.11050  0.37770  1.0000 -0.5255080306
C   C93       1.0  0.65160  0.61050  0.12230  1.0000 -0.5255080306
C   C94       1.0  0.15160  0.88950  0.37770  1.0000 -0.5230247429
C   C95       1.0  0.84840  0.61050  0.87770  1.0000 -0.5255080306
C   C96       1.0  0.34840  0.88950  0.62230  1.0000 -0.5230247429
C   C97       1.0  0.36810  0.36740  0.12670  1.0000 -0.5230247429
C   C98       1.0  0.86810  0.13260  0.37330  1.0000 -0.5230247429
C   C99       1.0  0.13190  0.36740  0.87330  1.0000 -0.5230247429
C   C100      1.0  0.63190  0.13260  0.62670  1.0000 -0.5230247429
C   C101      1.0  0.63190  0.63260  0.87330  1.0000 -0.5230247429
C   C102      1.0  0.13190  0.86740  0.62670  1.0000 -0.5230247429
C   C103      1.0  0.86810  0.63260  0.12670  1.0000 -0.5230247429
C   C104      1.0  0.36810  0.86740  0.37330  1.0000 -0.5230247429
N   N1        1.0  0.43020  0.44069  0.96737  1.0000 -0.247711577
N   N2        1.0  0.93020  0.05931  0.53263  1.0000 -0.247711577
N   N3        1.0  0.06980  0.44069  0.03263  1.0000 -0.247711577
N   N4        1.0  0.56980  0.05931  0.46737  1.0000 -0.247711577
N   N5        1.0  0.56980  0.55931  0.03263  1.0000 -0.247711577
N   N6        1.0  0.06980  0.94069  0.46737  1.0000 -0.247711577
N   N7        1.0  0.93020  0.55931  0.96737  1.0000 -0.247711577
N   N8        1.0  0.43020  0.94069  0.53263  1.0000 -0.247711577
N   N9        1.0  0.43586  0.43423  0.03631  1.0000 -0.247711577
N   N10       1.0  0.93586  0.06577  0.46369  1.0000 -0.247711577
N   N11       1.0  0.06414  0.43423  0.96369  1.0000 -0.247711577
N   N12       1.0  0.56414  0.06577  0.53631  1.0000 -0.247711577
N   N13       1.0  0.56414  0.56577  0.96369  1.0000 -0.247711577
N   N14       1.0  0.06414  0.93423  0.53631  1.0000 -0.247711577
N   N15       1.0  0.93586  0.56577  0.03631  1.0000 -0.247711577
N   N16       1.0  0.43586  0.93423  0.46369  1.0000 -0.247711577
N   N17       1.0  0.34125  0.36390  0.00244  1.0000 -0.405902371
N   N18       1.0  0.84125  0.13610  0.49756  1.0000 -0.405902371
N   N19       1.0  0.15875  0.36390  0.99756  1.0000 -0.4042914533
N   N20       1.0  0.65875  0.13610  0.50244  1.0000 -0.405902371
N   N21       1.0  0.65875  0.63610  0.99756  1.0000 -0.405902371
N   N22       1.0  0.15875  0.86390  0.50244  1.0000 -0.405902371
N   N23       1.0  0.84125  0.63610  0.00244  1.0000 -0.405902371
N   N24       1.0  0.34125  0.86390  0.49756  1.0000 -0.405902371
N   N25       1.0  0.12773  0.55600  0.83798  1.0000 -0.247711577
N   N26       1.0  0.62773  0.94400  0.66202  1.0000 -0.247711577
N   N27       1.0  0.37227  0.55600  0.16202  1.0000 -0.247711577
N   N28       1.0  0.87227  0.94400  0.33798  1.0000 -0.247711577
N   N29       1.0  0.87227  0.44400  0.16202  1.0000 -0.247711577
N   N30       1.0  0.37227  0.05600  0.33798  1.0000 -0.247711577
N   N31       1.0  0.62773  0.44400  0.83798  1.0000 -0.247711577
N   N32       1.0  0.12773  0.05600  0.66202  1.0000 -0.247711577
N   N33       1.0  0.05300  0.55690  0.84629  1.0000 -0.0407840037
N   N34       1.0  0.55300  0.94310  0.65371  1.0000 -0.0407840037
N   N35       1.0  0.44700  0.55690  0.15371  1.0000 -0.0407840037
N   N36       1.0  0.94700  0.94310  0.34629  1.0000 -0.0407840037
N   N37       1.0  0.94700  0.44310  0.15371  1.0000 -0.0407840037
N   N38       1.0  0.44700  0.05690  0.34629  1.0000 -0.0407840037
N   N39       1.0  0.55300  0.44310  0.84629  1.0000 -0.0407840037
N   N40       1.0  0.05300  0.05690  0.65371  1.0000 -0.0407840037
N   N41       1.0  0.02130  0.59850  0.80050  1.0000 -0.053640653
N   N42       1.0  0.52130  0.90150  0.69950  1.0000 -0.053640653
N   N43       1.0  0.47870  0.59850  0.19950  1.0000 -0.053640653
N   N44       1.0  0.97870  0.90150  0.30050  1.0000 -0.053640653
N   N45       1.0  0.97870  0.40150  0.19950  1.0000 -0.053640653
N   N46       1.0  0.47870  0.09850  0.30050  1.0000 -0.053640653
N   N47       1.0  0.52130  0.40150  0.80050  1.0000 -0.053640653
N   N48       1.0  0.02130  0.09850  0.69950  1.0000 -0.053640653
N   N49       1.0  0.07770  0.62800  0.76330  1.0000 -0.2440828668
N   N50       1.0  0.57770  0.87200  0.73670  1.0000 -0.2440828668
N   N51       1.0  0.42230  0.62800  0.23670  1.0000 -0.2440828668
N   N52       1.0  0.92230  0.87200  0.26330  1.0000 -0.2440828668
N   N53       1.0  0.92230  0.37200  0.23670  1.0000 -0.2440828668
N   N54       1.0  0.42230  0.12800  0.26330  1.0000 -0.2440828668
N   N55       1.0  0.57770  0.37200  0.76330  1.0000 -0.2440828668
N   N56       1.0  0.07770  0.12800  0.73670  1.0000 -0.2440828668
O   O1        1.0  0.41233  0.55731  0.86195  1.0000 -0.502319763
O   O2        1.0  0.91233  0.94269  0.63805  1.0000 -0.502319763
O   O3        1.0  0.08767  0.55731  0.13805  1.0000 -0.502319763
O   O4        1.0  0.58767  0.94269  0.36195  1.0000 -0.502319763
O   O5        1.0  0.58767  0.44269  0.13805  1.0000 -0.502319763
O   O6        1.0  0.08767  0.05731  0.36195  1.0000 -0.502319763
O   O7        1.0  0.91233  0.44269  0.86195  1.0000 -0.502319763
O   O8        1.0  0.41233  0.05731  0.63805  1.0000 -0.502319763
O   O9        1.0  0.48360  0.59740  0.77950  1.0000 -0.4361991161
O   O10       1.0  0.98360  0.90260  0.72050  1.0000 -0.4361991161
O   O11       1.0  0.01640  0.59740  0.22050  1.0000 -0.4361991161
O   O12       1.0  0.51640  0.90260  0.27950  1.0000 -0.4361991161
O   O13       1.0  0.51640  0.40260  0.22050  1.0000 -0.4361991161
O   O14       1.0  0.01640  0.09740  0.27950  1.0000 -0.4361991161
O   O15       1.0  0.98360  0.40260  0.77950  1.0000 -0.4361991161
O   O16       1.0  0.48360  0.09740  0.72050  1.0000 -0.4361991161
O   O17       1.0  0.24161  0.73605  0.58166  1.0000 -0.502319763
O   O18       1.0  0.74161  0.76395  0.91834  1.0000 -0.502319763
O   O19       1.0  0.25839  0.73605  0.41834  1.0000 -0.502319763
O   O20       1.0  0.75839  0.76395  0.08166  1.0000 -0.502319763
O   O21       1.0  0.75839  0.26395  0.41834  1.0000 -0.502319763
O   O22       1.0  0.25839  0.23605  0.08166  1.0000 -0.502319763
O   O23       1.0  0.74161  0.26395  0.58166  1.0000 -0.502319763
O   O24       1.0  0.24161  0.23605  0.91834  1.0000 -0.502319763
O   O25       1.0  0.36097  0.70210  0.57271  1.0000 -0.451987485
O   O26       1.0  0.86097  0.79790  0.92729  1.0000 -0.451987485
O   O27       1.0  0.13903  0.70210  0.42729  1.0000 -0.451987485
O   O28       1.0  0.63903  0.79790  0.07271  1.0000 -0.451987485
O   O29       1.0  0.63903  0.29790  0.42729  1.0000 -0.451987485
O   O30       1.0  0.13903  0.20210  0.07271  1.0000 -0.451987485
O   O31       1.0  0.86097  0.29790  0.57271  1.0000 -0.451987485
O   O32       1.0  0.36097  0.20210  0.92729  1.0000 -0.451987485
