# DDEC6 charges by PACMAN v1.1 (https://github.com/mtap-research/PACMAN-charge/)
data_d3dt03959e2_1_FSR_pacman
_symmetry_space_group_name_H-M   'P 1'
_cell_length_a   11.00720000
_cell_length_b   15.97060000
_cell_length_c   18.22070000
_cell_angle_alpha   90.00000000
_cell_angle_beta   90.00000000
_cell_angle_gamma   90.00000000
_symmetry_Int_Tables_number   1
_chemical_formula_structural   Zn2H32C61(NO4)2
_chemical_formula_sum   'Zn2 H32 C61 N2 O8'
_cell_volume   3203.04579330
_cell_formula_units_Z   1
loop_
 _symmetry_equiv_pos_site_id
 _symmetry_equiv_pos_as_xyz
  1  'x, y, z'
loop_
 _atom_site_type_symbol
 _atom_site_label
 _atom_site_symmetry_multiplicity
 _atom_site_fract_x
 _atom_site_fract_y
 _atom_site_fract_z
 _atom_site_occupancy
 _atom_site_charge
Zn  Zn1  1  0.50000000  0.50000000  0.57949000  1.0 0.7016499971
Zn  Zn2  1  0.50000000  0.50000000  0.42051000  1.0 0.7016499971
H  H1  1  0.21132000  0.00000000  0.50000000  1.0 0.1165963148
H  H2  1  0.78868000  0.00000000  0.50000000  1.0 0.1165963148
H  H3  1  0.69097000  0.24043000  0.86737000  0.25 0.1036207636
H  H4  1  0.30903000  0.75957000  0.86737000  0.25 0.1036207636
H  H5  1  0.30903000  0.24043000  0.13263000  0.25 0.1036207636
H  H6  1  0.69097000  0.75957000  0.13263000  0.25 0.1036207636
H  H7  1  0.30903000  0.75957000  0.13263000  0.25 0.1036207636
H  H8  1  0.69097000  0.24043000  0.13263000  0.25 0.1036207636
H  H9  1  0.69097000  0.75957000  0.86737000  0.25 0.1036207636
H  H10  1  0.30903000  0.24043000  0.86737000  0.25 0.1036207636
H  H11  1  0.73256000  0.11546000  0.93724000  0.25 0.1036207636
H  H12  1  0.26744000  0.88454000  0.93724000  0.25 0.1036207636
H  H13  1  0.26744000  0.11546000  0.06276000  0.25 0.1036207636
H  H14  1  0.73256000  0.88454000  0.06276000  0.25 0.1036207636
H  H15  1  0.26744000  0.88454000  0.06276000  0.25 0.1036207636
H  H16  1  0.73256000  0.11546000  0.06276000  0.25 0.1036207636
H  H17  1  0.73256000  0.88454000  0.93724000  0.25 0.1036207636
H  H18  1  0.26744000  0.11546000  0.93724000  0.25 0.1036207636
H  H19  1  0.59025000  0.13524000  0.93724000  0.25 0.0890590434
H  H20  1  0.40975000  0.86476000  0.93724000  0.25 0.0890590434
H  H21  1  0.40975000  0.13524000  0.06276000  0.25 0.0890590434
H  H22  1  0.59025000  0.86476000  0.06276000  0.25 0.0890590434
H  H23  1  0.40975000  0.86476000  0.06276000  0.25 0.0890590434
H  H24  1  0.59025000  0.13524000  0.06276000  0.25 0.0890590434
H  H25  1  0.59025000  0.86476000  0.93724000  0.25 0.0890590434
H  H26  1  0.40975000  0.13524000  0.93724000  0.25 0.0890590434
H  H27  1  0.34162000  0.25764000  0.40746000  0.5 0.111394461
H  H28  1  0.65838000  0.74236000  0.40746000  0.5 0.111394461
H  H29  1  0.65838000  0.25764000  0.59254000  0.5 0.111394461
H  H30  1  0.34162000  0.74236000  0.59254000  0.5 0.111394461
H  H31  1  0.65838000  0.74236000  0.59254000  0.5 0.111394461
H  H32  1  0.34162000  0.25764000  0.59254000  0.5 0.111394461
H  H33  1  0.34162000  0.74236000  0.40746000  0.5 0.111394461
H  H34  1  0.65838000  0.25764000  0.40746000  0.5 0.111394461
H  H35  1  0.18081000  0.32293000  0.40255000  0.5 0.111394461
H  H36  1  0.81919000  0.67707000  0.40255000  0.5 0.111394461
H  H37  1  0.81919000  0.32293000  0.59745000  0.5 0.111394461
H  H38  1  0.18081000  0.67707000  0.59745000  0.5 0.111394461
H  H39  1  0.81919000  0.67707000  0.59745000  0.5 0.111394461
H  H40  1  0.18081000  0.32293000  0.59745000  0.5 0.111394461
H  H41  1  0.18081000  0.67707000  0.40255000  0.5 0.111394461
H  H42  1  0.81919000  0.32293000  0.40255000  0.5 0.111394461
H  H43  1  0.22643000  0.13452000  0.40452000  0.5 0.1036207636
H  H44  1  0.77357000  0.86548000  0.40452000  0.5 0.1036207636
H  H45  1  0.77357000  0.13452000  0.59548000  0.5 0.1036207636
H  H46  1  0.22643000  0.86548000  0.59548000  0.5 0.1036207636
H  H47  1  0.77357000  0.86548000  0.59548000  0.5 0.1036207636
H  H48  1  0.22643000  0.13452000  0.59548000  0.5 0.1036207636
H  H49  1  0.22643000  0.86548000  0.40452000  0.5 0.1036207636
H  H50  1  0.77357000  0.13452000  0.40452000  0.5 0.1036207636
H  H51  1  0.06236000  0.20197000  0.40714000  0.5 0.0890590434
H  H52  1  0.93764000  0.79803000  0.40714000  0.5 0.0890590434
H  H53  1  0.93764000  0.20197000  0.59286000  0.5 0.0890590434
H  H54  1  0.06236000  0.79803000  0.59286000  0.5 0.0890590434
H  H55  1  0.93764000  0.79803000  0.59286000  0.5 0.0890590434
H  H56  1  0.06236000  0.20197000  0.59286000  0.5 0.0890590434
H  H57  1  0.06236000  0.79803000  0.40714000  0.5 0.0890590434
H  H58  1  0.93764000  0.20197000  0.40714000  0.5 0.0890590434
H  H59  1  0.67153000  0.53898000  0.70225000  0.5 0.0717836728
H  H60  1  0.32847000  0.46102000  0.70225000  0.5 0.0717836728
H  H61  1  0.32847000  0.53898000  0.29775000  0.5 0.0717836728
H  H62  1  0.67153000  0.46102000  0.29775000  0.5 0.0717836728
H  H63  1  0.32847000  0.46102000  0.29775000  0.5 0.0717836728
H  H64  1  0.67153000  0.53898000  0.29775000  0.5 0.0717836728
H  H65  1  0.67153000  0.46102000  0.70225000  0.5 0.0717836728
H  H66  1  0.32847000  0.53898000  0.70225000  0.5 0.0717836728
H  H67  1  0.66382000  0.54973000  0.82564000  0.5 0.0890590434
H  H68  1  0.33618000  0.45027000  0.82564000  0.5 0.0890590434
H  H69  1  0.33618000  0.54973000  0.17436000  0.5 0.0890590434
H  H70  1  0.66382000  0.45027000  0.17436000  0.5 0.0890590434
H  H71  1  0.33618000  0.45027000  0.17436000  0.5 0.0890590434
H  H72  1  0.66382000  0.54973000  0.17436000  0.5 0.0890590434
H  H73  1  0.66382000  0.45027000  0.82564000  0.5 0.0890590434
H  H74  1  0.33618000  0.54973000  0.82564000  0.5 0.0890590434
C  C1  1  0.50000000  0.50000000  0.68920000  1.0 -0.1911676044
C  C2  1  0.50000000  0.50000000  0.31080000  1.0 -0.1911676044
C  C3  1  0.27000000  0.30260000  0.50000000  1.0 0.0096723892
C  C4  1  0.73000000  0.69740000  0.50000000  1.0 0.0096723892
C  C5  1  0.73000000  0.30260000  0.50000000  1.0 0.0096723892
C  C6  1  0.27000000  0.69740000  0.50000000  1.0 0.0096723892
C  C7  1  0.06470000  0.07650000  0.50000000  1.0 -0.0130595726
C  C8  1  0.93530000  0.92350000  0.50000000  1.0 -0.0130595726
C  C9  1  0.93530000  0.07650000  0.50000000  1.0 -0.0130595726
C  C10  1  0.06470000  0.92350000  0.50000000  1.0 -0.0130595726
C  C11  1  0.12500000  0.00000000  0.50000000  1.0 -0.2503009552
C  C12  1  0.87500000  0.00000000  0.50000000  1.0 -0.2503009552
C  C13  1  0.34520000  0.38070000  0.50000000  1.0 0.5110458469
C  C14  1  0.65480000  0.61930000  0.50000000  1.0 0.5110458469
C  C15  1  0.65480000  0.38070000  0.50000000  1.0 0.5110458469
C  C16  1  0.34520000  0.61930000  0.50000000  1.0 0.5110458469
C  C17  1  0.50000000  0.50000000  0.92470000  1.0 -0.1053877662
C  C18  1  0.50000000  0.50000000  0.07530000  1.0 -0.1026162545
C  C19  1  0.13530000  0.15510000  0.50000000  1.0 0.0428766009
C  C20  1  0.86470000  0.84490000  0.50000000  1.0 0.0428766009
C  C21  1  0.86470000  0.15510000  0.50000000  1.0 0.0428766009
C  C22  1  0.13530000  0.84490000  0.50000000  1.0 0.0428766009
C  C23  1  0.50000000  0.50000000  0.83910000  1.0 -0.0863810054
C  C24  1  0.50000000  0.50000000  0.16090000  1.0 -0.0863810054
C  C25  1  0.38200000  0.64300000  0.93700000  0.25 0.0428766009
C  C26  1  0.61800000  0.35700000  0.93700000  0.25 0.0428766009
C  C27  1  0.61800000  0.64300000  0.06300000  0.25 0.0428766009
C  C28  1  0.38200000  0.35700000  0.06300000  0.25 0.0428766009
C  C29  1  0.61800000  0.35700000  0.06300000  0.25 0.0428766009
C  C30  1  0.38200000  0.64300000  0.06300000  0.25 0.0428766009
C  C31  1  0.38200000  0.35700000  0.93700000  0.25 0.0428766009
C  C32  1  0.61800000  0.64300000  0.93700000  0.25 0.0428766009
C  C33  1  0.45010000  0.56990000  0.96180000  0.25 0.0096723892
C  C34  1  0.54990000  0.43010000  0.96180000  0.25 0.0096723892
C  C35  1  0.54990000  0.56990000  0.03820000  0.25 0.0207852079
C  C36  1  0.45010000  0.43010000  0.03820000  0.25 0.0207852079
C  C37  1  0.54990000  0.43010000  0.03820000  0.25 0.0207852079
C  C38  1  0.45010000  0.56990000  0.03820000  0.25 0.0207852079
C  C39  1  0.45010000  0.43010000  0.96180000  0.25 0.0096723892
C  C40  1  0.54990000  0.56990000  0.96180000  0.25 0.0096723892
C  C41  1  0.69400000  0.23630000  0.92200000  0.25 -0.1284469164
C  C42  1  0.30600000  0.76370000  0.92200000  0.25 -0.1284469164
C  C43  1  0.30600000  0.23630000  0.07800000  0.25 -0.1284469164
C  C44  1  0.69400000  0.76370000  0.07800000  0.25 -0.1284469164
C  C45  1  0.30600000  0.76370000  0.07800000  0.25 -0.1284469164
C  C46  1  0.69400000  0.23630000  0.07800000  0.25 -0.1284469164
C  C47  1  0.69400000  0.76370000  0.92200000  0.25 -0.1284469164
C  C48  1  0.30600000  0.23630000  0.92200000  0.25 -0.1284469164
C  C49  1  0.67000000  0.15500000  0.95500000  0.25 -0.2084699201
C  C50  1  0.33000000  0.84500000  0.95500000  0.25 -0.2084699201
C  C51  1  0.33000000  0.15500000  0.04500000  0.25 -0.2084699201
C  C52  1  0.67000000  0.84500000  0.04500000  0.25 -0.2084699201
C  C53  1  0.33000000  0.84500000  0.04500000  0.25 -0.2084699201
C  C54  1  0.67000000  0.15500000  0.04500000  0.25 -0.2084699201
C  C55  1  0.67000000  0.84500000  0.95500000  0.25 -0.2084699201
C  C56  1  0.33000000  0.15500000  0.95500000  0.25 -0.2084699201
C  C57  1  0.50000000  0.42160000  0.96040000  0.25 0.0800880117
C  C58  1  0.50000000  0.57840000  0.96040000  0.25 0.0800880117
C  C59  1  0.50000000  0.42160000  0.03960000  0.25 0.0800880117
C  C60  1  0.50000000  0.57840000  0.03960000  0.25 0.0800880117
C  C61  1  0.61100000  0.28710000  0.96310000  0.25 0.0096723892
C  C62  1  0.38900000  0.71290000  0.96310000  0.25 0.0096723892
C  C63  1  0.38900000  0.28710000  0.03690000  0.25 0.0096723892
C  C64  1  0.61100000  0.71290000  0.03690000  0.25 0.0096723892
C  C65  1  0.38900000  0.71290000  0.03690000  0.25 0.0096723892
C  C66  1  0.61100000  0.28710000  0.03690000  0.25 0.0096723892
C  C67  1  0.61100000  0.71290000  0.96310000  0.25 0.0096723892
C  C68  1  0.38900000  0.28710000  0.96310000  0.25 0.0096723892
C  C69  1  0.27100000  0.67600000  0.97000000  0.25 0.0207852079
C  C70  1  0.72900000  0.32400000  0.97000000  0.25 0.0207852079
C  C71  1  0.72900000  0.67600000  0.03000000  0.25 0.0207852079
C  C72  1  0.27100000  0.32400000  0.03000000  0.25 0.0207852079
C  C73  1  0.72900000  0.32400000  0.03000000  0.25 0.0207852079
C  C74  1  0.27100000  0.67600000  0.03000000  0.25 0.0207852079
C  C75  1  0.27100000  0.32400000  0.97000000  0.25 0.0207852079
C  C76  1  0.72900000  0.67600000  0.97000000  0.25 0.0207852079
C  C77  1  0.28460000  0.24670000  0.44540000  0.5 -0.0863810054
C  C78  1  0.71540000  0.75330000  0.44540000  0.5 -0.0863810054
C  C79  1  0.71540000  0.24670000  0.55460000  0.5 -0.0863810054
C  C80  1  0.28460000  0.75330000  0.55460000  0.5 -0.0863810054
C  C81  1  0.71540000  0.75330000  0.55460000  0.5 -0.0863810054
C  C82  1  0.28460000  0.24670000  0.55460000  0.5 -0.0863810054
C  C83  1  0.28460000  0.75330000  0.44540000  0.5 -0.0863810054
C  C84  1  0.71540000  0.24670000  0.44540000  0.5 -0.0863810054
C  C85  1  0.18880000  0.28510000  0.44250000  0.5 -0.0797788924
C  C86  1  0.81120000  0.71490000  0.44250000  0.5 -0.0797788924
C  C87  1  0.81120000  0.28510000  0.55750000  0.5 -0.0863810054
C  C88  1  0.18880000  0.71490000  0.55750000  0.5 -0.0797788924
C  C89  1  0.81120000  0.71490000  0.55750000  0.5 -0.0797788924
C  C90  1  0.18880000  0.28510000  0.55750000  0.5 -0.0797788924
C  C91  1  0.18880000  0.71490000  0.44250000  0.5 -0.0797788924
C  C92  1  0.81120000  0.28510000  0.44250000  0.5 -0.0863810054
C  C93  1  0.21680000  0.17280000  0.44400000  0.5 -0.0656933005
C  C94  1  0.78320000  0.82720000  0.44400000  0.5 -0.0595238509
C  C95  1  0.78320000  0.17280000  0.55600000  0.5 -0.0656933005
C  C96  1  0.21680000  0.82720000  0.55600000  0.5 -0.0595238509
C  C97  1  0.78320000  0.82720000  0.55600000  0.5 -0.0595238509
C  C98  1  0.21680000  0.17280000  0.55600000  0.5 -0.0656933005
C  C99  1  0.21680000  0.82720000  0.44400000  0.5 -0.0595238509
C  C100  1  0.78320000  0.17280000  0.44400000  0.5 -0.0656933005
C  C101  1  0.12040000  0.21240000  0.44460000  0.5 -0.1026162545
C  C102  1  0.87960000  0.78760000  0.44460000  0.5 -0.1026162545
C  C103  1  0.87960000  0.21240000  0.55540000  0.5 -0.1026162545
C  C104  1  0.12040000  0.78760000  0.55540000  0.5 -0.1026162545
C  C105  1  0.87960000  0.78760000  0.55540000  0.5 -0.1026162545
C  C106  1  0.12040000  0.21240000  0.55540000  0.5 -0.1026162545
C  C107  1  0.12040000  0.78760000  0.44460000  0.5 -0.1026162545
C  C108  1  0.87960000  0.21240000  0.44460000  0.5 -0.1026162545
C  C109  1  0.59920000  0.52420000  0.72750000  0.5 -0.0489474426
C  C110  1  0.40080000  0.47580000  0.72750000  0.5 -0.0489474426
C  C111  1  0.40080000  0.52420000  0.27250000  0.5 -0.0489474426
C  C112  1  0.59920000  0.47580000  0.27250000  0.5 -0.0489474426
C  C113  1  0.40080000  0.47580000  0.27250000  0.5 -0.0489474426
C  C114  1  0.59920000  0.52420000  0.27250000  0.5 -0.0489474426
C  C115  1  0.59920000  0.47580000  0.72750000  0.5 -0.0489474426
C  C116  1  0.40080000  0.52420000  0.72750000  0.5 -0.0489474426
C  C117  1  0.59590000  0.52730000  0.80010000  0.5 -0.0797788924
C  C118  1  0.40410000  0.47270000  0.80010000  0.5 -0.0797788924
C  C119  1  0.40410000  0.52730000  0.19990000  0.5 -0.0797788924
C  C120  1  0.59590000  0.47270000  0.19990000  0.5 -0.0797788924
C  C121  1  0.40410000  0.47270000  0.19990000  0.5 -0.0797788924
C  C122  1  0.59590000  0.52730000  0.19990000  0.5 -0.0797788924
C  C123  1  0.59590000  0.47270000  0.80010000  0.5 -0.0797788924
C  C124  1  0.40410000  0.52730000  0.80010000  0.5 -0.0797788924
N  N1  1  0.57360000  0.36050000  0.91990000  0.25 -0.0595238509
N  N2  1  0.42640000  0.63950000  0.91990000  0.25 -0.0595238509
N  N3  1  0.42640000  0.36050000  0.08010000  0.25 -0.0595238509
N  N4  1  0.57360000  0.63950000  0.08010000  0.25 -0.0595238509
N  N5  1  0.42640000  0.63950000  0.08010000  0.25 -0.0595238509
N  N6  1  0.57360000  0.36050000  0.08010000  0.25 -0.0595238509
N  N7  1  0.57360000  0.63950000  0.91990000  0.25 -0.0595238509
N  N8  1  0.42640000  0.36050000  0.91990000  0.25 -0.0595238509
O  O1  1  0.37480000  0.41120000  0.55922000  1.0 -0.4648830558
O  O2  1  0.62520000  0.58880000  0.55922000  1.0 -0.4648830558
O  O3  1  0.62520000  0.41120000  0.44078000  1.0 -0.4648830558
O  O4  1  0.37480000  0.58880000  0.44078000  1.0 -0.4648830558
O  O5  1  0.62520000  0.58880000  0.44078000  1.0 -0.4648830558
O  O6  1  0.37480000  0.41120000  0.44078000  1.0 -0.4648830558
O  O7  1  0.37480000  0.58880000  0.55922000  1.0 -0.4648830558
O  O8  1  0.62520000  0.41120000  0.55922000  1.0 -0.4648830558
