# DDEC6 charges by PACMAN v1.1 (https://github.com/mtap-research/PACMAN-charge/)
data_2022[Zn][kgd]2[ASR]1
_chemical_formula_sum              "Zn1 H48 C66 N12"
_cell_length_a       13.2732
_cell_length_b       13.2732
_cell_length_c       13.2732
_cell_angle_alpha    89.5767
_cell_angle_beta     89.5767
_cell_angle_gamma    89.5767

_symmetry_space_group_name_H-M    "P 1"
_symmetry_Int_Tables_number       1

loop_
  _symmetry_equiv_pos_as_xyz
  'x, y, z'

loop_
  _atom_site_type_symbol
  _atom_site_label
  _atom_site_symmetry_multiplicity
  _atom_site_fract_x
  _atom_site_fract_y
  _atom_site_fract_z
  _atom_site_occupancy
  _atom_site_charge
Zn  Zn1       1.0  0.50000  0.50000  0.50000  1.0000 0.574966169
H   H1        1.0  0.55342  0.60110  0.27943  1.0000 0.0997413543
H   H2        1.0  0.71333  0.49556  0.87861  1.0000 0.1088787098
H   H3        1.0  0.52495  0.31623  0.33225  1.0000 0.1088787098
H   H4        1.0  0.82169  0.59589  0.79705  1.0000 0.0997413543
H   H5        1.0  0.65998  0.41387  0.02443  1.0000 0.1233150446
H   H6        1.0  0.57258  0.33515  0.15538  1.0000 0.1233150446
H   H7        1.0  0.59490  0.75020  0.97802  1.0000 0.1088787098
H   H8        1.0  0.54286  0.67115  0.12410  1.0000 0.1233150446
H   H9        1.0  0.60110  0.27943  0.55342  1.0000 0.0997413543
H   H10       1.0  0.49556  0.87861  0.71333  1.0000 0.1088787098
H   H11       1.0  0.31623  0.33225  0.52495  1.0000 0.1088787098
H   H12       1.0  0.59589  0.79705  0.82169  1.0000 0.0997413543
H   H13       1.0  0.41387  0.02443  0.65998  1.0000 0.1233150446
H   H14       1.0  0.33515  0.15538  0.57258  1.0000 0.1233150446
H   H15       1.0  0.75020  0.97802  0.59490  1.0000 0.1088787098
H   H16       1.0  0.67115  0.12410  0.54286  1.0000 0.1233150446
H   H17       1.0  0.27943  0.55342  0.60110  1.0000 0.0997413543
H   H18       1.0  0.87861  0.71333  0.49556  1.0000 0.1088787098
H   H19       1.0  0.33225  0.52495  0.31623  1.0000 0.1088787098
H   H20       1.0  0.79705  0.82169  0.59589  1.0000 0.0997413543
H   H21       1.0  0.02443  0.65998  0.41387  1.0000 0.1233150446
H   H22       1.0  0.15538  0.57258  0.33515  1.0000 0.1233150446
H   H23       1.0  0.97802  0.59490  0.75020  1.0000 0.1088787098
H   H24       1.0  0.12410  0.54286  0.67115  1.0000 0.1233150446
H   H25       1.0  0.44658  0.39890  0.72057  1.0000 0.0997413543
H   H26       1.0  0.28667  0.50444  0.12139  1.0000 0.1088787098
H   H27       1.0  0.47505  0.68377  0.66775  1.0000 0.1088787098
H   H28       1.0  0.17831  0.40411  0.20295  1.0000 0.0997413543
H   H29       1.0  0.34002  0.58613  0.97557  1.0000 0.1233150446
H   H30       1.0  0.42742  0.66485  0.84462  1.0000 0.1233150446
H   H31       1.0  0.40510  0.24980  0.02198  1.0000 0.1088787098
H   H32       1.0  0.45714  0.32885  0.87590  1.0000 0.1233150446
H   H33       1.0  0.39890  0.72057  0.44658  1.0000 0.0997413543
H   H34       1.0  0.50444  0.12139  0.28667  1.0000 0.1088787098
H   H35       1.0  0.68377  0.66775  0.47505  1.0000 0.1088787098
H   H36       1.0  0.40411  0.20295  0.17831  1.0000 0.0997413543
H   H37       1.0  0.58613  0.97557  0.34002  1.0000 0.1233150446
H   H38       1.0  0.66485  0.84462  0.42742  1.0000 0.1233150446
H   H39       1.0  0.24980  0.02198  0.40510  1.0000 0.1088787098
H   H40       1.0  0.32885  0.87590  0.45714  1.0000 0.1233150446
H   H41       1.0  0.72057  0.44658  0.39890  1.0000 0.0997413543
H   H42       1.0  0.12139  0.28667  0.50444  1.0000 0.1088787098
H   H43       1.0  0.66775  0.47505  0.68377  1.0000 0.1088787098
H   H44       1.0  0.20295  0.17831  0.40411  1.0000 0.0997413543
H   H45       1.0  0.97557  0.34002  0.58613  1.0000 0.1233150446
H   H46       1.0  0.84462  0.42742  0.66485  1.0000 0.1233150446
H   H47       1.0  0.02198  0.40510  0.24980  1.0000 0.1088787098
H   H48       1.0  0.87590  0.45714  0.32885  1.0000 0.1233150446
C   C1        1.0  0.55220  0.53171  0.27034  1.0000 0.0824175853
C   C2        1.0  0.66600  0.63460  0.91700  1.0000 0.0564427057
C   C3        1.0  0.68140  0.53210  0.92940  1.0000 -0.157645363
C   C4        1.0  0.53650  0.37720  0.29940  1.0000 -0.043386531
C   C5        1.0  0.78858  0.65340  0.77382  1.0000 -0.2192740349
C   C6        1.0  0.70330  0.68830  0.82510  1.0000 0.0824175853
C   C7        1.0  0.64970  0.48290  0.01690  1.0000 -0.1937179201
C   C8        1.0  0.60324  0.53700  0.09176  1.0000 0.1387542925
C   C9        1.0  0.56300  0.38680  0.20150  1.0000 -0.1306821141
C   C10       1.0  0.61160  0.68280  0.98830  1.0000 -0.1410840188
C   C11       1.0  0.57990  0.63560  0.07620  1.0000 -0.2033301526
C   C12       1.0  0.53171  0.27034  0.55220  1.0000 0.0824175853
C   C13       1.0  0.63460  0.91700  0.66600  1.0000 0.0564427057
C   C14       1.0  0.53210  0.92940  0.68140  1.0000 -0.157645363
C   C15       1.0  0.37720  0.29940  0.53650  1.0000 -0.043386531
C   C16       1.0  0.65340  0.77382  0.78858  1.0000 -0.2192740349
C   C17       1.0  0.68830  0.82510  0.70330  1.0000 0.0824175853
C   C18       1.0  0.48290  0.01690  0.64970  1.0000 -0.1937179201
C   C19       1.0  0.53700  0.09176  0.60324  1.0000 0.1387542925
C   C20       1.0  0.38680  0.20150  0.56300  1.0000 -0.1306821141
C   C21       1.0  0.68280  0.98830  0.61160  1.0000 -0.1410840188
C   C22       1.0  0.63560  0.07620  0.57990  1.0000 -0.2033301526
C   C23       1.0  0.27034  0.55220  0.53171  1.0000 0.0824175853
C   C24       1.0  0.91700  0.66600  0.63460  1.0000 0.0564427057
C   C25       1.0  0.92940  0.68140  0.53210  1.0000 -0.157645363
C   C26       1.0  0.29940  0.53650  0.37720  1.0000 -0.043386531
C   C27       1.0  0.77382  0.78858  0.65340  1.0000 -0.2192740349
C   C28       1.0  0.82510  0.70330  0.68830  1.0000 0.0824175853
C   C29       1.0  0.01690  0.64970  0.48290  1.0000 -0.1937179201
C   C30       1.0  0.09176  0.60324  0.53700  1.0000 0.1387542925
C   C31       1.0  0.20150  0.56300  0.38680  1.0000 -0.1306821141
C   C32       1.0  0.98830  0.61160  0.68280  1.0000 -0.1410840188
C   C33       1.0  0.07620  0.57990  0.63560  1.0000 -0.2033301526
C   C34       1.0  0.44780  0.46829  0.72966  1.0000 0.0824175853
C   C35       1.0  0.33400  0.36540  0.08300  1.0000 0.0564427057
C   C36       1.0  0.31860  0.46790  0.07060  1.0000 -0.157645363
C   C37       1.0  0.46350  0.62280  0.70060  1.0000 -0.043386531
C   C38       1.0  0.21142  0.34660  0.22618  1.0000 -0.2192740349
C   C39       1.0  0.29670  0.31170  0.17490  1.0000 0.0824175853
C   C40       1.0  0.35030  0.51710  0.98310  1.0000 -0.1937179201
C   C41       1.0  0.39676  0.46300  0.90824  1.0000 0.1387542925
C   C42       1.0  0.43700  0.61320  0.79850  1.0000 -0.1306821141
C   C43       1.0  0.38840  0.31720  0.01170  1.0000 -0.1410840188
C   C44       1.0  0.42010  0.36440  0.92380  1.0000 -0.2033301526
C   C45       1.0  0.46829  0.72966  0.44780  1.0000 0.0824175853
C   C46       1.0  0.36540  0.08300  0.33400  1.0000 0.0564427057
C   C47       1.0  0.46790  0.07060  0.31860  1.0000 -0.157645363
C   C48       1.0  0.62280  0.70060  0.46350  1.0000 -0.043386531
C   C49       1.0  0.34660  0.22618  0.21142  1.0000 -0.2192740349
C   C50       1.0  0.31170  0.17490  0.29670  1.0000 0.0824175853
C   C51       1.0  0.51710  0.98310  0.35030  1.0000 -0.1937179201
C   C52       1.0  0.46300  0.90824  0.39676  1.0000 0.1387542925
C   C53       1.0  0.61320  0.79850  0.43700  1.0000 -0.1306821141
C   C54       1.0  0.31720  0.01170  0.38840  1.0000 -0.1410840188
C   C55       1.0  0.36440  0.92380  0.42010  1.0000 -0.2033301526
C   C56       1.0  0.72966  0.44780  0.46829  1.0000 0.0824175853
C   C57       1.0  0.08300  0.33400  0.36540  1.0000 0.0564427057
C   C58       1.0  0.07060  0.31860  0.46790  1.0000 -0.157645363
C   C59       1.0  0.70060  0.46350  0.62280  1.0000 -0.043386531
C   C60       1.0  0.22618  0.21142  0.34660  1.0000 -0.2192740349
C   C61       1.0  0.17490  0.29670  0.31170  1.0000 0.0824175853
C   C62       1.0  0.98310  0.35030  0.51710  1.0000 -0.1937179201
C   C63       1.0  0.90824  0.39676  0.46300  1.0000 0.1387542925
C   C64       1.0  0.79850  0.43700  0.61320  1.0000 -0.1306821141
C   C65       1.0  0.01170  0.38840  0.31720  1.0000 -0.1410840188
C   C66       1.0  0.92380  0.42010  0.36440  1.0000 -0.2033301526
N   N1        1.0  0.52944  0.46727  0.34245  1.0000 -0.2684166714
N   N2        1.0  0.57313  0.48786  0.18376  1.0000 0.0056129704
N   N3        1.0  0.46727  0.34245  0.52944  1.0000 -0.2684166714
N   N4        1.0  0.48786  0.18376  0.57313  1.0000 0.0056129704
N   N5        1.0  0.34245  0.52944  0.46727  1.0000 -0.2684166714
N   N6        1.0  0.18376  0.57313  0.48786  1.0000 0.0056129704
N   N7        1.0  0.47056  0.53273  0.65755  1.0000 -0.2684166714
N   N8        1.0  0.42687  0.51214  0.81624  1.0000 0.0056129704
N   N9        1.0  0.53273  0.65755  0.47056  1.0000 -0.2684166714
N   N10       1.0  0.51214  0.81624  0.42687  1.0000 0.0056129704
N   N11       1.0  0.65755  0.47056  0.53273  1.0000 -0.2684166714
N   N12       1.0  0.81624  0.42687  0.51214  1.0000 0.0056129704
