# DDEC6 charges by PACMAN v1.1 (https://github.com/mtap-research/PACMAN-charge/)
data_2024[Zn][lig]3[ASR]1
_chemical_formula_sum              "Zn8 H24 C40 N32"
_cell_length_a       14.9679
_cell_length_b       14.9679
_cell_length_c       9.6787
_cell_angle_alpha    90
_cell_angle_beta     90
_cell_angle_gamma    90

_symmetry_space_group_name_H-M    "P 1"
_symmetry_Int_Tables_number       1

loop_
  _symmetry_equiv_pos_as_xyz
  'x, y, z'

loop_
  _atom_site_type_symbol
  _atom_site_label
  _atom_site_symmetry_multiplicity
  _atom_site_fract_x
  _atom_site_fract_y
  _atom_site_fract_z
  _atom_site_occupancy
  _atom_site_charge
Zn  Zn1       1.0  0.82074  0.34322  0.45388  1.0000 0.5458479764
Zn  Zn2       1.0  0.17926  0.65678  0.45388  1.0000 0.5443076583
Zn  Zn3       1.0  0.34322  0.17926  0.54612  1.0000 0.5443076583
Zn  Zn4       1.0  0.65678  0.82074  0.54612  1.0000 0.5458479764
Zn  Zn5       1.0  0.32074  0.84322  0.95388  1.0000 0.5458479764
Zn  Zn6       1.0  0.67926  0.15678  0.95388  1.0000 0.5443076583
Zn  Zn7       1.0  0.84322  0.67926  0.04612  1.0000 0.5458479764
Zn  Zn8       1.0  0.15678  0.32074  0.04612  1.0000 0.5443076583
H   H1        1.0  0.81120  0.23870  0.73430  1.0000 0.0864120813
H   H2        1.0  0.18880  0.76130  0.73430  1.0000 0.0864120813
H   H3        1.0  0.23870  0.18880  0.26570  1.0000 0.0864120813
H   H4        1.0  0.76130  0.81120  0.26570  1.0000 0.0864120813
H   H5        1.0  0.31120  0.73870  0.23430  1.0000 0.0864120813
H   H6        1.0  0.68880  0.26130  0.23430  1.0000 0.0864120813
H   H7        1.0  0.73870  0.68880  0.76570  1.0000 0.0864120813
H   H8        1.0  0.26130  0.31120  0.76570  1.0000 0.0864120813
H   H9        1.0  0.49570  0.16820  0.74520  1.0000 0.0964554565
H   H10       1.0  0.50430  0.83180  0.74520  1.0000 0.0964554565
H   H11       1.0  0.16820  0.50430  0.25480  1.0000 0.0964554565
H   H12       1.0  0.83180  0.49570  0.25480  1.0000 0.0964554565
H   H13       1.0  0.99570  0.66820  0.24520  1.0000 0.0964554565
H   H14       1.0  0.00430  0.33180  0.24520  1.0000 0.0964554565
H   H15       1.0  0.66820  0.00430  0.75480  1.0000 0.0964554565
H   H16       1.0  0.33180  0.99570  0.75480  1.0000 0.0964554565
H   H17       1.0  0.47290  0.29340  0.38830  1.0000 0.0834849792
H   H18       1.0  0.52710  0.70660  0.38830  1.0000 0.0834849792
H   H19       1.0  0.29340  0.52710  0.61170  1.0000 0.0834849792
H   H20       1.0  0.70660  0.47290  0.61170  1.0000 0.0834849792
H   H21       1.0  0.97290  0.79340  0.88830  1.0000 0.0834849792
H   H22       1.0  0.02710  0.20660  0.88830  1.0000 0.0834849792
H   H23       1.0  0.79340  0.02710  0.11170  1.0000 0.0834849792
H   H24       1.0  0.20660  0.97290  0.11170  1.0000 0.0834849792
C   C1        1.0  0.75240  0.24180  0.69750  1.0000 0.1519010389
C   C2        1.0  0.24760  0.75820  0.69750  1.0000 0.1554460468
C   C3        1.0  0.24180  0.24760  0.30250  1.0000 0.1519010389
C   C4        1.0  0.75820  0.75240  0.30250  1.0000 0.1519010389
C   C5        1.0  0.25240  0.74180  0.19750  1.0000 0.1554460468
C   C6        1.0  0.74760  0.25820  0.19750  1.0000 0.1554460468
C   C7        1.0  0.74180  0.74760  0.80250  1.0000 0.1554460468
C   C8        1.0  0.25820  0.25240  0.80250  1.0000 0.1554460468
C   C9        1.0  0.61000  0.22360  0.67520  1.0000 0.0379803035
C   C10       1.0  0.39000  0.77640  0.67520  1.0000 0.0379803035
C   C11       1.0  0.22360  0.39000  0.32480  1.0000 0.0379803035
C   C12       1.0  0.77640  0.61000  0.32480  1.0000 0.0379803035
C   C13       1.0  0.11000  0.72360  0.17520  1.0000 0.0379803035
C   C14       1.0  0.89000  0.27640  0.17520  1.0000 0.0379803035
C   C15       1.0  0.72360  0.89000  0.82480  1.0000 0.0379803035
C   C16       1.0  0.27640  0.11000  0.82480  1.0000 0.0379803035
C   C17       1.0  0.52160  0.20220  0.67260  1.0000 -0.0184044616
C   C18       1.0  0.47840  0.79780  0.67260  1.0000 -0.0184044616
C   C19       1.0  0.20220  0.47840  0.32740  1.0000 -0.0184044616
C   C20       1.0  0.79780  0.52160  0.32740  1.0000 -0.0184044616
C   C21       1.0  0.02160  0.70220  0.17260  1.0000 -0.0184044616
C   C22       1.0  0.97840  0.29780  0.17260  1.0000 -0.0184044616
C   C23       1.0  0.70220  0.97840  0.82740  1.0000 -0.0184044616
C   C24       1.0  0.29780  0.02160  0.82740  1.0000 -0.0184044616
C   C25       1.0  0.51060  0.27610  0.46250  1.0000 0.1519010389
C   C26       1.0  0.48940  0.72390  0.46250  1.0000 0.1519010389
C   C27       1.0  0.27610  0.48940  0.53750  1.0000 0.1519010389
C   C28       1.0  0.72390  0.51060  0.53750  1.0000 0.1519010389
C   C29       1.0  0.01060  0.77610  0.96250  1.0000 0.1519010389
C   C30       1.0  0.98940  0.22390  0.96250  1.0000 0.1519010389
C   C31       1.0  0.77610  0.98940  0.03750  1.0000 0.1519010389
C   C32       1.0  0.22390  0.01060  0.03750  1.0000 0.1519010389
C   C33       1.0  0.64440  0.27160  0.55840  1.0000 0.2748836519
C   C34       1.0  0.35560  0.72840  0.55840  1.0000 0.2752868773
C   C35       1.0  0.27160  0.35560  0.44160  1.0000 0.2752868773
C   C36       1.0  0.72840  0.64440  0.44160  1.0000 0.2748836519
C   C37       1.0  0.14440  0.77160  0.05840  1.0000 0.2748836519
C   C38       1.0  0.85560  0.22840  0.05840  1.0000 0.2752868773
C   C39       1.0  0.77160  0.85560  0.94160  1.0000 0.2748836519
C   C40       1.0  0.22840  0.14440  0.94160  1.0000 0.2748836519
N   N1        1.0  0.47180  0.22980  0.56630  1.0000 -0.2811679675
N   N2        1.0  0.52820  0.77020  0.56630  1.0000 -0.2811679675
N   N3        1.0  0.22980  0.52820  0.43370  1.0000 -0.2811679675
N   N4        1.0  0.77020  0.47180  0.43370  1.0000 -0.2811679675
N   N5        1.0  0.97180  0.72980  0.06630  1.0000 -0.2811679675
N   N6        1.0  0.02820  0.27020  0.06630  1.0000 -0.2811679675
N   N7        1.0  0.72980  0.02820  0.93370  1.0000 -0.2811679675
N   N8        1.0  0.27020  0.97180  0.93370  1.0000 -0.2811679675
N   N9        1.0  0.59520  0.29960  0.45320  1.0000 -0.3868314384
N   N10       1.0  0.40480  0.70040  0.45320  1.0000 -0.3868314384
N   N11       1.0  0.29960  0.40480  0.54680  1.0000 -0.3868314384
N   N12       1.0  0.70040  0.59520  0.54680  1.0000 -0.3868314384
N   N13       1.0  0.09520  0.79960  0.95320  1.0000 -0.3868314384
N   N14       1.0  0.90480  0.20040  0.95320  1.0000 -0.3868314384
N   N15       1.0  0.79960  0.90480  0.04680  1.0000 -0.3868314384
N   N16       1.0  0.20040  0.09520  0.04680  1.0000 -0.3868314384
N   N17       1.0  0.67980  0.20570  0.76210  1.0000 -0.3644229827
N   N18       1.0  0.32020  0.79430  0.76210  1.0000 -0.3644229827
N   N19       1.0  0.20570  0.32020  0.23790  1.0000 -0.3644229827
N   N20       1.0  0.79430  0.67980  0.23790  1.0000 -0.3644229827
N   N21       1.0  0.17980  0.70570  0.26210  1.0000 -0.3644229827
N   N22       1.0  0.82020  0.29430  0.26210  1.0000 -0.3644229827
N   N23       1.0  0.70570  0.82020  0.73790  1.0000 -0.3644229827
N   N24       1.0  0.29430  0.17980  0.73790  1.0000 -0.3644229827
N   N25       1.0  0.73350  0.28170  0.57820  1.0000 -0.3796363568
N   N26       1.0  0.26650  0.71830  0.57820  1.0000 -0.3796363568
N   N27       1.0  0.28170  0.26650  0.42180  1.0000 -0.3796363568
N   N28       1.0  0.71830  0.73350  0.42180  1.0000 -0.3796363568
N   N29       1.0  0.23350  0.78170  0.07820  1.0000 -0.3796363568
N   N30       1.0  0.76650  0.21830  0.07820  1.0000 -0.3796363568
N   N31       1.0  0.78170  0.76650  0.92180  1.0000 -0.3796363568
N   N32       1.0  0.21830  0.23350  0.92180  1.0000 -0.3796363568
