# DDEC6 charges by PACMAN v1.1 (https://github.com/mtap-research/PACMAN-charge/)
data_2018[Zn][pcu]3[FSR]3
_chemical_formula_sum              "Zn16 H128 C144 S16 N16 O64"
_cell_length_a       20.4693
_cell_length_b       20.4693
_cell_length_c       19.1467
_cell_angle_alpha    90
_cell_angle_beta     90
_cell_angle_gamma    90

_symmetry_space_group_name_H-M    "P 1"
_symmetry_Int_Tables_number       1

loop_
  _symmetry_equiv_pos_as_xyz
  'x, y, z'

loop_
  _atom_site_type_symbol
  _atom_site_label
  _atom_site_symmetry_multiplicity
  _atom_site_fract_x
  _atom_site_fract_y
  _atom_site_fract_z
  _atom_site_occupancy
  _atom_site_charge
Zn  Zn1       1.0  0.26479  0.72849  0.17831  1.0000 0.8366083051
Zn  Zn2       1.0  0.23472  0.75499  0.32991  1.0000 0.8366083051
Zn  Zn3       1.0  0.73521  0.27151  0.17831  1.0000 0.8366083051
Zn  Zn4       1.0  0.76528  0.24501  0.32991  1.0000 0.8366083051
Zn  Zn5       1.0  0.27151  0.26479  0.82169  1.0000 0.8366083051
Zn  Zn6       1.0  0.24501  0.23472  0.67009  1.0000 0.8366083051
Zn  Zn7       1.0  0.72849  0.73521  0.82169  1.0000 0.8366083051
Zn  Zn8       1.0  0.75499  0.76528  0.67009  1.0000 0.8366083051
Zn  Zn9       1.0  0.23521  0.22849  0.32169  1.0000 0.8366083051
Zn  Zn10      1.0  0.26528  0.25499  0.17009  1.0000 0.8366083051
Zn  Zn11      1.0  0.76479  0.77151  0.32169  1.0000 0.8366083051
Zn  Zn12      1.0  0.73472  0.74501  0.17009  1.0000 0.8366083051
Zn  Zn13      1.0  0.22849  0.76479  0.67831  1.0000 0.8366083051
Zn  Zn14      1.0  0.25499  0.73472  0.82991  1.0000 0.8366083051
Zn  Zn15      1.0  0.77151  0.23521  0.67831  1.0000 0.8366083051
Zn  Zn16      1.0  0.74501  0.26528  0.82991  1.0000 0.8366083051
H   H1        1.0  0.94290  0.69390  0.11280  1.0000 0.1270471714
H   H2        1.0  0.30720  0.64070  0.05380  1.0000 0.120569337
H   H3        1.0  0.23130  0.63530  0.06410  1.0000 0.120569337
H   H4        1.0  0.16590  0.73400  0.06090  1.0000 0.120569337
H   H5        1.0  0.19930  0.80270  0.06830  1.0000 0.120569337
H   H6        1.0  0.31840  0.80890  0.05670  1.0000 0.120569337
H   H7        1.0  0.36060  0.74500  0.06070  1.0000 0.120569337
H   H8        1.0  0.06120  0.68610  0.11760  1.0000 0.1270471714
H   H9        1.0  0.28160  0.54720  0.39270  1.0000 0.1270471714
H   H10       1.0  0.28160  0.42830  0.38780  1.0000 0.1270471714
H   H11       1.0  0.21410  0.64450  0.95160  1.0000 0.120569337
H   H12       1.0  0.28980  0.63690  0.94110  1.0000 0.120569337
H   H13       1.0  0.35750  0.73290  0.94730  1.0000 0.120569337
H   H14       1.0  0.32600  0.80270  0.94300  1.0000 0.120569337
H   H15       1.0  0.20800  0.81280  0.95560  1.0000 0.120569337
H   H16       1.0  0.16370  0.75050  0.94870  1.0000 0.120569337
H   H17       1.0  0.05710  0.30610  0.11280  1.0000 0.1270471714
H   H18       1.0  0.69280  0.35930  0.05380  1.0000 0.120569337
H   H19       1.0  0.76870  0.36470  0.06410  1.0000 0.120569337
H   H20       1.0  0.83410  0.26600  0.06090  1.0000 0.120569337
H   H21       1.0  0.80070  0.19730  0.06830  1.0000 0.120569337
H   H22       1.0  0.68160  0.19110  0.05670  1.0000 0.120569337
H   H23       1.0  0.63940  0.25500  0.06070  1.0000 0.120569337
H   H24       1.0  0.93880  0.31390  0.11760  1.0000 0.1270471714
H   H25       1.0  0.71840  0.45280  0.39270  1.0000 0.1270471714
H   H26       1.0  0.71840  0.57170  0.38780  1.0000 0.1270471714
H   H27       1.0  0.78590  0.35550  0.95160  1.0000 0.120569337
H   H28       1.0  0.71020  0.36310  0.94110  1.0000 0.120569337
H   H29       1.0  0.64250  0.26710  0.94730  1.0000 0.120569337
H   H30       1.0  0.67400  0.19730  0.94300  1.0000 0.120569337
H   H31       1.0  0.79200  0.18720  0.95560  1.0000 0.120569337
H   H32       1.0  0.83630  0.24950  0.94870  1.0000 0.120569337
H   H33       1.0  0.30610  0.94290  0.88720  1.0000 0.1270471714
H   H34       1.0  0.35930  0.30720  0.94620  1.0000 0.120569337
H   H35       1.0  0.36470  0.23130  0.93590  1.0000 0.120569337
H   H36       1.0  0.26600  0.16590  0.93910  1.0000 0.120569337
H   H37       1.0  0.19730  0.19930  0.93170  1.0000 0.120569337
H   H38       1.0  0.19110  0.31840  0.94330  1.0000 0.120569337
H   H39       1.0  0.25500  0.36060  0.93930  1.0000 0.120569337
H   H40       1.0  0.31390  0.06120  0.88240  1.0000 0.1270471714
H   H41       1.0  0.45280  0.28160  0.60730  1.0000 0.1270471714
H   H42       1.0  0.57170  0.28160  0.61220  1.0000 0.1270471714
H   H43       1.0  0.35550  0.21410  0.04840  1.0000 0.120569337
H   H44       1.0  0.36310  0.28980  0.05890  1.0000 0.120569337
H   H45       1.0  0.26710  0.35750  0.05270  1.0000 0.120569337
H   H46       1.0  0.19730  0.32600  0.05700  1.0000 0.120569337
H   H47       1.0  0.18720  0.20800  0.04440  1.0000 0.120569337
H   H48       1.0  0.24950  0.16370  0.05130  1.0000 0.120569337
H   H49       1.0  0.69390  0.05710  0.88720  1.0000 0.1270471714
H   H50       1.0  0.64070  0.69280  0.94620  1.0000 0.120569337
H   H51       1.0  0.63530  0.76870  0.93590  1.0000 0.120569337
H   H52       1.0  0.73400  0.83410  0.93910  1.0000 0.120569337
H   H53       1.0  0.80270  0.80070  0.93170  1.0000 0.120569337
H   H54       1.0  0.80890  0.68160  0.94330  1.0000 0.120569337
H   H55       1.0  0.74500  0.63940  0.93930  1.0000 0.120569337
H   H56       1.0  0.68610  0.93880  0.88240  1.0000 0.1270471714
H   H57       1.0  0.54720  0.71840  0.60730  1.0000 0.1270471714
H   H58       1.0  0.42830  0.71840  0.61220  1.0000 0.1270471714
H   H59       1.0  0.64450  0.78590  0.04840  1.0000 0.120569337
H   H60       1.0  0.63690  0.71020  0.05890  1.0000 0.120569337
H   H61       1.0  0.73290  0.64250  0.05270  1.0000 0.120569337
H   H62       1.0  0.80270  0.67400  0.05700  1.0000 0.120569337
H   H63       1.0  0.81280  0.79200  0.04440  1.0000 0.120569337
H   H64       1.0  0.75050  0.83630  0.05130  1.0000 0.120569337
H   H65       1.0  0.55710  0.19390  0.38720  1.0000 0.1270471714
H   H66       1.0  0.19280  0.14070  0.44620  1.0000 0.120569337
H   H67       1.0  0.26870  0.13530  0.43590  1.0000 0.120569337
H   H68       1.0  0.33410  0.23400  0.43910  1.0000 0.120569337
H   H69       1.0  0.30070  0.30270  0.43170  1.0000 0.120569337
H   H70       1.0  0.18160  0.30890  0.44330  1.0000 0.120569337
H   H71       1.0  0.13940  0.24500  0.43930  1.0000 0.120569337
H   H72       1.0  0.43880  0.18610  0.38240  1.0000 0.1270471714
H   H73       1.0  0.21840  0.04720  0.10730  1.0000 0.1270471714
H   H74       1.0  0.21840  0.92830  0.11220  1.0000 0.1270471714
H   H75       1.0  0.28590  0.14450  0.54840  1.0000 0.120569337
H   H76       1.0  0.21020  0.13690  0.55890  1.0000 0.120569337
H   H77       1.0  0.14250  0.23290  0.55270  1.0000 0.120569337
H   H78       1.0  0.17400  0.30270  0.55700  1.0000 0.120569337
H   H79       1.0  0.29200  0.31280  0.54440  1.0000 0.120569337
H   H80       1.0  0.33630  0.25050  0.55130  1.0000 0.120569337
H   H81       1.0  0.44290  0.80610  0.38720  1.0000 0.1270471714
H   H82       1.0  0.80720  0.85930  0.44620  1.0000 0.120569337
H   H83       1.0  0.73130  0.86470  0.43590  1.0000 0.120569337
H   H84       1.0  0.66590  0.76600  0.43910  1.0000 0.120569337
H   H85       1.0  0.69930  0.69730  0.43170  1.0000 0.120569337
H   H86       1.0  0.81840  0.69110  0.44330  1.0000 0.120569337
H   H87       1.0  0.86060  0.75500  0.43930  1.0000 0.120569337
H   H88       1.0  0.56120  0.81390  0.38240  1.0000 0.1270471714
H   H89       1.0  0.78160  0.95280  0.10730  1.0000 0.1270471714
H   H90       1.0  0.78160  0.07170  0.11220  1.0000 0.1270471714
H   H91       1.0  0.71410  0.85550  0.54840  1.0000 0.120569337
H   H92       1.0  0.78980  0.86310  0.55890  1.0000 0.120569337
H   H93       1.0  0.85750  0.76710  0.55270  1.0000 0.120569337
H   H94       1.0  0.82600  0.69730  0.55700  1.0000 0.120569337
H   H95       1.0  0.70800  0.68720  0.54440  1.0000 0.120569337
H   H96       1.0  0.66370  0.74950  0.55130  1.0000 0.120569337
H   H97       1.0  0.19390  0.44290  0.61280  1.0000 0.1270471714
H   H98       1.0  0.14070  0.80720  0.55380  1.0000 0.120569337
H   H99       1.0  0.13530  0.73130  0.56410  1.0000 0.120569337
H   H100      1.0  0.23400  0.66590  0.56090  1.0000 0.120569337
H   H101      1.0  0.30270  0.69930  0.56830  1.0000 0.120569337
H   H102      1.0  0.30890  0.81840  0.55670  1.0000 0.120569337
H   H103      1.0  0.24500  0.86060  0.56070  1.0000 0.120569337
H   H104      1.0  0.18610  0.56120  0.61760  1.0000 0.1270471714
H   H105      1.0  0.04720  0.78160  0.89270  1.0000 0.1270471714
H   H106      1.0  0.92830  0.78160  0.88780  1.0000 0.1270471714
H   H107      1.0  0.14450  0.71410  0.45160  1.0000 0.120569337
H   H108      1.0  0.13690  0.78980  0.44110  1.0000 0.120569337
H   H109      1.0  0.23290  0.85750  0.44730  1.0000 0.120569337
H   H110      1.0  0.30270  0.82600  0.44300  1.0000 0.120569337
H   H111      1.0  0.31280  0.70800  0.45560  1.0000 0.120569337
H   H112      1.0  0.25050  0.66370  0.44870  1.0000 0.120569337
H   H113      1.0  0.80610  0.55710  0.61280  1.0000 0.1270471714
H   H114      1.0  0.85930  0.19280  0.55380  1.0000 0.120569337
H   H115      1.0  0.86470  0.26870  0.56410  1.0000 0.120569337
H   H116      1.0  0.76600  0.33410  0.56090  1.0000 0.120569337
H   H117      1.0  0.69730  0.30070  0.56830  1.0000 0.120569337
H   H118      1.0  0.69110  0.18160  0.55670  1.0000 0.120569337
H   H119      1.0  0.75500  0.13940  0.56070  1.0000 0.120569337
H   H120      1.0  0.81390  0.43880  0.61760  1.0000 0.1270471714
H   H121      1.0  0.95280  0.21840  0.89270  1.0000 0.1270471714
H   H122      1.0  0.07170  0.21840  0.88780  1.0000 0.1270471714
H   H123      1.0  0.85550  0.28590  0.45160  1.0000 0.120569337
H   H124      1.0  0.86310  0.21020  0.44110  1.0000 0.120569337
H   H125      1.0  0.76710  0.14250  0.44730  1.0000 0.120569337
H   H126      1.0  0.69730  0.17400  0.44300  1.0000 0.120569337
H   H127      1.0  0.68720  0.29200  0.45560  1.0000 0.120569337
H   H128      1.0  0.74950  0.33630  0.44870  1.0000 0.120569337
C   C1        1.0  0.27960  0.62120  0.26880  1.0000 0.5912262358
C   C2        1.0  0.05960  0.70690  0.22110  1.0000 -0.118935818
C   C3        1.0  0.94020  0.71420  0.21650  1.0000 -0.118935818
C   C4        1.0  0.96710  0.70000  0.15340  1.0000 -0.1278854333
C   C5        1.0  0.12980  0.71260  0.24030  1.0000 0.5912262358
C   C6        1.0  0.26570  0.66110  0.04290  1.0000 -0.118935818
C   C7        1.0  0.20330  0.76000  0.04700  1.0000 -0.118935818
C   C8        1.0  0.32040  0.76340  0.04250  1.0000 -0.118935818
C   C9        1.0  0.03530  0.69570  0.15620  1.0000 -0.1278854333
C   C10       1.0  0.28560  0.55140  0.28670  1.0000 -0.1278854333
C   C11       1.0  0.28320  0.52350  0.35130  1.0000 -0.118935818
C   C12       1.0  0.87000  0.72630  0.23230  1.0000 0.5951941344
C   C13       1.0  0.28590  0.43150  0.28240  1.0000 -0.118935818
C   C14       1.0  0.28040  0.36240  0.26050  1.0000 0.5912262358
C   C15       1.0  0.28320  0.45490  0.34850  1.0000 -0.118935818
C   C16       1.0  0.25620  0.66310  0.96340  1.0000 -0.118935818
C   C17       1.0  0.32080  0.75930  0.96250  1.0000 -0.118935818
C   C18       1.0  0.20430  0.76690  0.96780  1.0000 -0.1090090147
C   C19       1.0  0.72040  0.37880  0.26880  1.0000 0.5912262358
C   C20       1.0  0.94040  0.29310  0.22110  1.0000 -0.118935818
C   C21       1.0  0.05980  0.28580  0.21650  1.0000 -0.118935818
C   C22       1.0  0.03290  0.30000  0.15340  1.0000 -0.1278854333
C   C23       1.0  0.87020  0.28740  0.24030  1.0000 0.5912262358
C   C24       1.0  0.73430  0.33890  0.04290  1.0000 -0.118935818
C   C25       1.0  0.79670  0.24000  0.04700  1.0000 -0.118935818
C   C26       1.0  0.67960  0.23660  0.04250  1.0000 -0.118935818
C   C27       1.0  0.96470  0.30430  0.15620  1.0000 -0.1278854333
C   C28       1.0  0.71440  0.44860  0.28670  1.0000 -0.1278854333
C   C29       1.0  0.71680  0.47650  0.35130  1.0000 -0.118935818
C   C30       1.0  0.13000  0.27370  0.23230  1.0000 0.5951941344
C   C31       1.0  0.71410  0.56850  0.28240  1.0000 -0.118935818
C   C32       1.0  0.71960  0.63760  0.26050  1.0000 0.5912262358
C   C33       1.0  0.71680  0.54510  0.34850  1.0000 -0.118935818
C   C34       1.0  0.74380  0.33690  0.96340  1.0000 -0.118935818
C   C35       1.0  0.67920  0.24070  0.96250  1.0000 -0.118935818
C   C36       1.0  0.79570  0.23310  0.96780  1.0000 -0.1090090147
C   C37       1.0  0.37880  0.27960  0.73120  1.0000 0.5912262358
C   C38       1.0  0.29310  0.05960  0.77890  1.0000 -0.118935818
C   C39       1.0  0.28580  0.94020  0.78350  1.0000 -0.118935818
C   C40       1.0  0.30000  0.96710  0.84660  1.0000 -0.1278854333
C   C41       1.0  0.28740  0.12980  0.75970  1.0000 0.5912262358
C   C42       1.0  0.33890  0.26570  0.95710  1.0000 -0.118935818
C   C43       1.0  0.24000  0.20330  0.95300  1.0000 -0.118935818
C   C44       1.0  0.23660  0.32040  0.95750  1.0000 -0.118935818
C   C45       1.0  0.30430  0.03530  0.84380  1.0000 -0.1278854333
C   C46       1.0  0.44860  0.28560  0.71330  1.0000 -0.1278854333
C   C47       1.0  0.47650  0.28320  0.64870  1.0000 -0.118935818
C   C48       1.0  0.27370  0.87000  0.76770  1.0000 0.5951941344
C   C49       1.0  0.56850  0.28590  0.71760  1.0000 -0.118935818
C   C50       1.0  0.63760  0.28040  0.73950  1.0000 0.5912262358
C   C51       1.0  0.54510  0.28320  0.65150  1.0000 -0.118935818
C   C52       1.0  0.33690  0.25620  0.03660  1.0000 -0.118935818
C   C53       1.0  0.24070  0.32080  0.03750  1.0000 -0.118935818
C   C54       1.0  0.23310  0.20430  0.03220  1.0000 -0.1090090147
C   C55       1.0  0.62120  0.72040  0.73120  1.0000 0.5912262358
C   C56       1.0  0.70690  0.94040  0.77890  1.0000 -0.118935818
C   C57       1.0  0.71420  0.05980  0.78350  1.0000 -0.118935818
C   C58       1.0  0.70000  0.03290  0.84660  1.0000 -0.1278854333
C   C59       1.0  0.71260  0.87020  0.75970  1.0000 0.5912262358
C   C60       1.0  0.66110  0.73430  0.95710  1.0000 -0.118935818
C   C61       1.0  0.76000  0.79670  0.95300  1.0000 -0.118935818
C   C62       1.0  0.76340  0.67960  0.95750  1.0000 -0.118935818
C   C63       1.0  0.69570  0.96470  0.84380  1.0000 -0.1278854333
C   C64       1.0  0.55140  0.71440  0.71330  1.0000 -0.1278854333
C   C65       1.0  0.52350  0.71680  0.64870  1.0000 -0.118935818
C   C66       1.0  0.72630  0.13000  0.76770  1.0000 0.5951941344
C   C67       1.0  0.43150  0.71410  0.71760  1.0000 -0.118935818
C   C68       1.0  0.36240  0.71960  0.73950  1.0000 0.5912262358
C   C69       1.0  0.45490  0.71680  0.65150  1.0000 -0.118935818
C   C70       1.0  0.66310  0.74380  0.03660  1.0000 -0.118935818
C   C71       1.0  0.75930  0.67920  0.03750  1.0000 -0.118935818
C   C72       1.0  0.76690  0.79570  0.03220  1.0000 -0.1090090147
C   C73       1.0  0.22040  0.12120  0.23120  1.0000 0.5912262358
C   C74       1.0  0.44040  0.20690  0.27890  1.0000 -0.118935818
C   C75       1.0  0.55980  0.21420  0.28350  1.0000 -0.118935818
C   C76       1.0  0.53290  0.20000  0.34660  1.0000 -0.1278854333
C   C77       1.0  0.37020  0.21260  0.25970  1.0000 0.5912262358
C   C78       1.0  0.23430  0.16110  0.45710  1.0000 -0.118935818
C   C79       1.0  0.29670  0.26000  0.45300  1.0000 -0.118935818
C   C80       1.0  0.17960  0.26340  0.45750  1.0000 -0.118935818
C   C81       1.0  0.46470  0.19570  0.34380  1.0000 -0.1278854333
C   C82       1.0  0.21440  0.05140  0.21330  1.0000 -0.1278854333
C   C83       1.0  0.21680  0.02350  0.14870  1.0000 -0.118935818
C   C84       1.0  0.63000  0.22630  0.26770  1.0000 0.5951941344
C   C85       1.0  0.21410  0.93150  0.21760  1.0000 -0.118935818
C   C86       1.0  0.21960  0.86240  0.23950  1.0000 0.5912262358
C   C87       1.0  0.21680  0.95490  0.15150  1.0000 -0.118935818
C   C88       1.0  0.24380  0.16310  0.53660  1.0000 -0.118935818
C   C89       1.0  0.17920  0.25930  0.53750  1.0000 -0.118935818
C   C90       1.0  0.29570  0.26690  0.53220  1.0000 -0.1090090147
C   C91       1.0  0.77960  0.87880  0.23120  1.0000 0.5912262358
C   C92       1.0  0.55960  0.79310  0.27890  1.0000 -0.118935818
C   C93       1.0  0.44020  0.78580  0.28350  1.0000 -0.118935818
C   C94       1.0  0.46710  0.80000  0.34660  1.0000 -0.1278854333
C   C95       1.0  0.62980  0.78740  0.25970  1.0000 0.5912262358
C   C96       1.0  0.76570  0.83890  0.45710  1.0000 -0.118935818
C   C97       1.0  0.70330  0.74000  0.45300  1.0000 -0.118935818
C   C98       1.0  0.82040  0.73660  0.45750  1.0000 -0.118935818
C   C99       1.0  0.53530  0.80430  0.34380  1.0000 -0.1278854333
C   C100      1.0  0.78560  0.94860  0.21330  1.0000 -0.1278854333
C   C101      1.0  0.78320  0.97650  0.14870  1.0000 -0.118935818
C   C102      1.0  0.37000  0.77370  0.26770  1.0000 0.5951941344
C   C103      1.0  0.78590  0.06850  0.21760  1.0000 -0.118935818
C   C104      1.0  0.78040  0.13760  0.23950  1.0000 0.5912262358
C   C105      1.0  0.78320  0.04510  0.15150  1.0000 -0.118935818
C   C106      1.0  0.75620  0.83690  0.53660  1.0000 -0.118935818
C   C107      1.0  0.82080  0.74070  0.53750  1.0000 -0.118935818
C   C108      1.0  0.70430  0.73310  0.53220  1.0000 -0.1090090147
C   C109      1.0  0.12120  0.77960  0.76880  1.0000 0.5912262358
C   C110      1.0  0.20690  0.55960  0.72110  1.0000 -0.118935818
C   C111      1.0  0.21420  0.44020  0.71650  1.0000 -0.118935818
C   C112      1.0  0.20000  0.46710  0.65340  1.0000 -0.1278854333
C   C113      1.0  0.21260  0.62980  0.74030  1.0000 0.5912262358
C   C114      1.0  0.16110  0.76570  0.54290  1.0000 -0.118935818
C   C115      1.0  0.26000  0.70330  0.54700  1.0000 -0.118935818
C   C116      1.0  0.26340  0.82040  0.54250  1.0000 -0.118935818
C   C117      1.0  0.19570  0.53530  0.65620  1.0000 -0.1278854333
C   C118      1.0  0.05140  0.78560  0.78670  1.0000 -0.1278854333
C   C119      1.0  0.02350  0.78320  0.85130  1.0000 -0.118935818
C   C120      1.0  0.22630  0.37000  0.73230  1.0000 0.5951941344
C   C121      1.0  0.93150  0.78590  0.78240  1.0000 -0.118935818
C   C122      1.0  0.86240  0.78040  0.76050  1.0000 0.5912262358
C   C123      1.0  0.95490  0.78320  0.84850  1.0000 -0.118935818
C   C124      1.0  0.16310  0.75620  0.46340  1.0000 -0.118935818
C   C125      1.0  0.25930  0.82080  0.46250  1.0000 -0.118935818
C   C126      1.0  0.26690  0.70430  0.46780  1.0000 -0.118935818
C   C127      1.0  0.87880  0.22040  0.76880  1.0000 0.5912262358
C   C128      1.0  0.79310  0.44040  0.72110  1.0000 -0.118935818
C   C129      1.0  0.78580  0.55980  0.71650  1.0000 -0.118935818
C   C130      1.0  0.80000  0.53290  0.65340  1.0000 -0.1278854333
C   C131      1.0  0.78740  0.37020  0.74030  1.0000 0.5912262358
C   C132      1.0  0.83890  0.23430  0.54290  1.0000 -0.118935818
C   C133      1.0  0.74000  0.29670  0.54700  1.0000 -0.118935818
C   C134      1.0  0.73660  0.17960  0.54250  1.0000 -0.118935818
C   C135      1.0  0.80430  0.46470  0.65620  1.0000 -0.1278854333
C   C136      1.0  0.94860  0.21440  0.78670  1.0000 -0.1278854333
C   C137      1.0  0.97650  0.21680  0.85130  1.0000 -0.118935818
C   C138      1.0  0.77370  0.63000  0.73230  1.0000 0.5951941344
C   C139      1.0  0.06850  0.21410  0.78240  1.0000 -0.118935818
C   C140      1.0  0.13760  0.21960  0.76050  1.0000 0.5912262358
C   C141      1.0  0.04510  0.21680  0.84850  1.0000 -0.118935818
C   C142      1.0  0.83690  0.24380  0.46340  1.0000 -0.118935818
C   C143      1.0  0.74070  0.17920  0.46250  1.0000 -0.118935818
C   C144      1.0  0.73310  0.29570  0.46780  1.0000 -0.1090090147
S   S1        1.0  0.99872  0.72273  0.28011  1.0000 0.1418524305
S   S2        1.0  0.28924  0.49334  0.22212  1.0000 0.159378353
S   S3        1.0  0.00128  0.27727  0.28011  1.0000 0.1418524305
S   S4        1.0  0.71076  0.50666  0.22212  1.0000 0.1539373132
S   S5        1.0  0.27727  0.99872  0.71989  1.0000 0.1418524305
S   S6        1.0  0.50666  0.28924  0.77788  1.0000 0.159378353
S   S7        1.0  0.72273  0.00128  0.71989  1.0000 0.1418524305
S   S8        1.0  0.49334  0.71076  0.77788  1.0000 0.1539373132
S   S9        1.0  0.50128  0.22273  0.21989  1.0000 0.1418524305
S   S10       1.0  0.21076  0.99334  0.27788  1.0000 0.159378353
S   S11       1.0  0.49872  0.77727  0.21989  1.0000 0.1418524305
S   S12       1.0  0.78924  0.00666  0.27788  1.0000 0.159378353
S   S13       1.0  0.22273  0.49872  0.78011  1.0000 0.1418524305
S   S14       1.0  0.99334  0.78924  0.72212  1.0000 0.159378353
S   S15       1.0  0.77727  0.50128  0.78011  1.0000 0.1418524305
S   S16       1.0  0.00666  0.21076  0.72212  1.0000 0.159378353
N   N1        1.0  0.26444  0.72799  0.07144  1.0000 -0.1044066218
N   N2        1.0  0.25974  0.73048  0.93704  1.0000 -0.1090090147
N   N3        1.0  0.73556  0.27201  0.07144  1.0000 -0.1044066218
N   N4        1.0  0.74026  0.26952  0.93704  1.0000 -0.1090090147
N   N5        1.0  0.27201  0.26444  0.92856  1.0000 -0.1090090147
N   N6        1.0  0.26952  0.25974  0.06296  1.0000 -0.1090090147
N   N7        1.0  0.72799  0.73556  0.92856  1.0000 -0.1044066218
N   N8        1.0  0.73048  0.74026  0.06296  1.0000 -0.1090090147
N   N9        1.0  0.23556  0.22799  0.42856  1.0000 -0.1090090147
N   N10       1.0  0.24026  0.23048  0.56296  1.0000 -0.1090090147
N   N11       1.0  0.76444  0.77201  0.42856  1.0000 -0.1044066218
N   N12       1.0  0.75974  0.76952  0.56296  1.0000 -0.1090090147
N   N13       1.0  0.22799  0.76444  0.57144  1.0000 -0.1044066218
N   N14       1.0  0.23048  0.75974  0.43704  1.0000 -0.1090090147
N   N15       1.0  0.77201  0.23556  0.57144  1.0000 -0.1090090147
N   N16       1.0  0.76952  0.24026  0.43704  1.0000 -0.1090090147
O   O1        1.0  0.26331  0.65890  0.31716  1.0000 -0.5591044691
O   O2        1.0  0.14261  0.73033  0.30141  1.0000 -0.5495870621
O   O3        1.0  0.16983  0.69854  0.19351  1.0000 -0.5495870621
O   O4        1.0  0.29032  0.63666  0.20628  1.0000 -0.5410088194
O   O5        1.0  0.83158  0.72142  0.18198  1.0000 -0.5495870621
O   O6        1.0  0.85536  0.74013  0.29471  1.0000 -0.5495870621
O   O7        1.0  0.26950  0.32208  0.30786  1.0000 -0.5591044691
O   O8        1.0  0.28515  0.34985  0.19635  1.0000 -0.5410088194
O   O9        1.0  0.73669  0.34110  0.31716  1.0000 -0.5591044691
O   O10       1.0  0.85739  0.26967  0.30141  1.0000 -0.5495870621
O   O11       1.0  0.83017  0.30146  0.19351  1.0000 -0.5495870621
O   O12       1.0  0.70968  0.36334  0.20628  1.0000 -0.5410088194
O   O13       1.0  0.16842  0.27858  0.18198  1.0000 -0.5495870621
O   O14       1.0  0.14464  0.25987  0.29471  1.0000 -0.5495870621
O   O15       1.0  0.73050  0.67792  0.30786  1.0000 -0.5591044691
O   O16       1.0  0.71485  0.65015  0.19635  1.0000 -0.5410088194
O   O17       1.0  0.34110  0.26331  0.68284  1.0000 -0.5591044691
O   O18       1.0  0.26967  0.14261  0.69859  1.0000 -0.5495870621
O   O19       1.0  0.30146  0.16983  0.80649  1.0000 -0.5495870621
O   O20       1.0  0.36334  0.29032  0.79372  1.0000 -0.5410088194
O   O21       1.0  0.27858  0.83158  0.81802  1.0000 -0.5495870621
O   O22       1.0  0.25987  0.85536  0.70529  1.0000 -0.5495870621
O   O23       1.0  0.67792  0.26950  0.69214  1.0000 -0.5591044691
O   O24       1.0  0.65015  0.28515  0.80365  1.0000 -0.5410088194
O   O25       1.0  0.65890  0.73669  0.68284  1.0000 -0.5591044691
O   O26       1.0  0.73033  0.85739  0.69859  1.0000 -0.5495870621
O   O27       1.0  0.69854  0.83017  0.80649  1.0000 -0.5495870621
O   O28       1.0  0.63666  0.70968  0.79372  1.0000 -0.5410088194
O   O29       1.0  0.72142  0.16842  0.81802  1.0000 -0.5495870621
O   O30       1.0  0.74013  0.14464  0.70529  1.0000 -0.5495870621
O   O31       1.0  0.32208  0.73050  0.69214  1.0000 -0.5591044691
O   O32       1.0  0.34985  0.71485  0.80365  1.0000 -0.5410088194
O   O33       1.0  0.23669  0.15890  0.18284  1.0000 -0.5591044691
O   O34       1.0  0.35739  0.23033  0.19859  1.0000 -0.5495870621
O   O35       1.0  0.33017  0.19854  0.30649  1.0000 -0.5495870621
O   O36       1.0  0.20968  0.13666  0.29372  1.0000 -0.5410088194
O   O37       1.0  0.66842  0.22142  0.31802  1.0000 -0.5495870621
O   O38       1.0  0.64464  0.24013  0.20529  1.0000 -0.5495870621
O   O39       1.0  0.23050  0.82208  0.19214  1.0000 -0.5591044691
O   O40       1.0  0.21485  0.84985  0.30365  1.0000 -0.5410088194
O   O41       1.0  0.76331  0.84110  0.18284  1.0000 -0.5591044691
O   O42       1.0  0.64261  0.76967  0.19859  1.0000 -0.5495870621
O   O43       1.0  0.66983  0.80146  0.30649  1.0000 -0.5495870621
O   O44       1.0  0.79032  0.86334  0.29372  1.0000 -0.5410088194
O   O45       1.0  0.33158  0.77858  0.31802  1.0000 -0.5495870621
O   O46       1.0  0.35536  0.75987  0.20529  1.0000 -0.5495870621
O   O47       1.0  0.76950  0.17792  0.19214  1.0000 -0.5591044691
O   O48       1.0  0.78515  0.15015  0.30365  1.0000 -0.5410088194
O   O49       1.0  0.15890  0.76331  0.81716  1.0000 -0.5591044691
O   O50       1.0  0.23033  0.64261  0.80141  1.0000 -0.5495870621
O   O51       1.0  0.19854  0.66983  0.69351  1.0000 -0.5495870621
O   O52       1.0  0.13666  0.79032  0.70628  1.0000 -0.5410088194
O   O53       1.0  0.22142  0.33158  0.68198  1.0000 -0.5495870621
O   O54       1.0  0.24013  0.35536  0.79471  1.0000 -0.5495870621
O   O55       1.0  0.82208  0.76950  0.80786  1.0000 -0.5591044691
O   O56       1.0  0.84985  0.78515  0.69635  1.0000 -0.5410088194
O   O57       1.0  0.84110  0.23669  0.81716  1.0000 -0.5591044691
O   O58       1.0  0.76967  0.35739  0.80141  1.0000 -0.5495870621
O   O59       1.0  0.80146  0.33017  0.69351  1.0000 -0.5495870621
O   O60       1.0  0.86334  0.20968  0.70628  1.0000 -0.5410088194
O   O61       1.0  0.77858  0.66842  0.68198  1.0000 -0.5495870621
O   O62       1.0  0.75987  0.64464  0.79471  1.0000 -0.5495870621
O   O63       1.0  0.17792  0.23050  0.80786  1.0000 -0.5591044691
O   O64       1.0  0.15015  0.21485  0.69635  1.0000 -0.5410088194
