# DDEC6 charges by PACMAN v1.1 (https://github.com/mtap-research/PACMAN-charge/)
data_2019[Zn][cag]3[FSR]1
_chemical_formula_sum              "Zn16 H96 C96 N64"
_cell_length_a       15.4042
_cell_length_b       15.4231
_cell_length_c       18.4379
_cell_angle_alpha    90
_cell_angle_beta     90
_cell_angle_gamma    90

_symmetry_space_group_name_H-M    "P 1"
_symmetry_Int_Tables_number       1

loop_
  _symmetry_equiv_pos_as_xyz
  'x, y, z'

loop_
  _atom_site_type_symbol
  _atom_site_label
  _atom_site_symmetry_multiplicity
  _atom_site_fract_x
  _atom_site_fract_y
  _atom_site_fract_z
  _atom_site_occupancy
  _atom_site_charge
Zn  Zn1       1.0  0.85226  0.01830  0.31155  1.0000 0.6092896096
Zn  Zn2       1.0  0.14774  0.98171  0.68845  1.0000 0.6092896096
Zn  Zn3       1.0  0.64773  0.51829  0.68845  1.0000 0.6092896096
Zn  Zn4       1.0  0.35226  0.48170  0.31155  1.0000 0.6092896096
Zn  Zn5       1.0  0.14774  0.48170  0.81155  1.0000 0.6092896096
Zn  Zn6       1.0  0.85226  0.51829  0.18845  1.0000 0.6092896096
Zn  Zn7       1.0  0.35226  0.98171  0.18845  1.0000 0.6092896096
Zn  Zn8       1.0  0.64773  0.01830  0.81155  1.0000 0.6092896096
Zn  Zn9       1.0  0.85181  0.71188  0.90590  1.0000 0.6092896096
Zn  Zn10      1.0  0.14819  0.28812  0.09410  1.0000 0.6092896096
Zn  Zn11      1.0  0.64818  0.21189  0.09410  1.0000 0.6092896096
Zn  Zn12      1.0  0.35181  0.78812  0.90590  1.0000 0.6092896096
Zn  Zn13      1.0  0.14819  0.78812  0.40590  1.0000 0.6092896096
Zn  Zn14      1.0  0.85181  0.21189  0.59410  1.0000 0.6092896096
Zn  Zn15      1.0  0.35181  0.28812  0.59410  1.0000 0.6092896096
Zn  Zn16      1.0  0.64818  0.71188  0.40590  1.0000 0.6092896096
H   H1        1.0  0.95799  0.10660  0.17424  1.0000 0.1006792718
H   H2        1.0  0.04200  0.89341  0.82576  1.0000 0.1006792718
H   H3        1.0  0.54200  0.60660  0.82576  1.0000 0.1006792718
H   H4        1.0  0.45799  0.39341  0.17424  1.0000 0.1006792718
H   H5        1.0  0.04200  0.39341  0.67424  1.0000 0.1006792718
H   H6        1.0  0.95799  0.60660  0.32576  1.0000 0.1006792718
H   H7        1.0  0.45799  0.89341  0.32576  1.0000 0.1006792718
H   H8        1.0  0.54200  0.10660  0.67424  1.0000 0.1006792718
H   H9        1.0  0.98812  0.92397  0.41944  1.0000 0.0789246641
H   H10       1.0  0.01187  0.07604  0.58056  1.0000 0.0789246641
H   H11       1.0  0.51187  0.42397  0.58056  1.0000 0.0789246641
H   H12       1.0  0.48812  0.57604  0.41944  1.0000 0.0789246641
H   H13       1.0  0.01187  0.57604  0.91944  1.0000 0.0789246641
H   H14       1.0  0.98812  0.42397  0.08056  1.0000 0.0789246641
H   H15       1.0  0.48812  0.07604  0.08056  1.0000 0.0789246641
H   H16       1.0  0.51187  0.92397  0.91944  1.0000 0.0789246641
H   H17       1.0  0.95014  0.89514  0.19455  1.0000 0.1006792718
H   H18       1.0  0.04985  0.10487  0.80545  1.0000 0.1006792718
H   H19       1.0  0.54985  0.39514  0.80545  1.0000 0.1006792718
H   H20       1.0  0.45015  0.60487  0.19455  1.0000 0.1006792718
H   H21       1.0  0.04985  0.60487  0.69455  1.0000 0.1006792718
H   H22       1.0  0.95014  0.39514  0.30545  1.0000 0.1006792718
H   H23       1.0  0.45015  0.10487  0.30545  1.0000 0.1006792718
H   H24       1.0  0.54985  0.89514  0.69455  1.0000 0.1006792718
H   H25       1.0  0.93516  0.40947  0.56616  1.0000 0.1006792718
H   H26       1.0  0.06484  0.59054  0.43384  1.0000 0.1006792718
H   H27       1.0  0.56483  0.90947  0.43384  1.0000 0.1006792718
H   H28       1.0  0.43516  0.09054  0.56616  1.0000 0.1006792718
H   H29       1.0  0.06484  0.09054  0.06616  1.0000 0.1006792718
H   H30       1.0  0.93516  0.90947  0.93384  1.0000 0.1006792718
H   H31       1.0  0.43516  0.59054  0.93384  1.0000 0.1006792718
H   H32       1.0  0.56483  0.40947  0.06616  1.0000 0.1006792718
H   H33       1.0  0.57882  0.80799  0.55353  1.0000 0.1006792718
H   H34       1.0  0.42117  0.19201  0.44647  1.0000 0.1006792718
H   H35       1.0  0.92117  0.30799  0.44647  1.0000 0.1006792718
H   H36       1.0  0.07883  0.69202  0.55353  1.0000 0.1006792718
H   H37       1.0  0.42117  0.69202  0.05353  1.0000 0.1006792718
H   H38       1.0  0.57882  0.30799  0.94647  1.0000 0.1006792718
H   H39       1.0  0.07883  0.19201  0.94647  1.0000 0.1006792718
H   H40       1.0  0.92117  0.80799  0.05353  1.0000 0.1006792718
H   H41       1.0  0.92298  0.21678  0.31683  1.0000 0.1006792718
H   H42       1.0  0.07702  0.78323  0.68317  1.0000 0.1006792718
H   H43       1.0  0.57701  0.71678  0.68317  1.0000 0.1006792718
H   H44       1.0  0.42298  0.28323  0.31683  1.0000 0.1006792718
H   H45       1.0  0.07702  0.28323  0.81683  1.0000 0.1006792718
H   H46       1.0  0.92298  0.71678  0.18317  1.0000 0.1006792718
H   H47       1.0  0.42298  0.78323  0.18317  1.0000 0.1006792718
H   H48       1.0  0.57701  0.21678  0.81683  1.0000 0.1006792718
H   H49       1.0  0.84008  0.55153  0.61232  1.0000 0.1006792718
H   H50       1.0  0.15992  0.44848  0.38768  1.0000 0.1006792718
H   H51       1.0  0.65991  0.05153  0.38768  1.0000 0.1006792718
H   H52       1.0  0.34009  0.94848  0.61232  1.0000 0.1006792718
H   H53       1.0  0.15992  0.94848  0.11232  1.0000 0.1006792718
H   H54       1.0  0.84008  0.05153  0.88768  1.0000 0.1006792718
H   H55       1.0  0.34009  0.44848  0.88768  1.0000 0.1006792718
H   H56       1.0  0.65991  0.55153  0.11232  1.0000 0.1006792718
H   H57       1.0  0.80893  0.57664  0.78227  1.0000 0.0789246641
H   H58       1.0  0.19106  0.42336  0.21773  1.0000 0.0789246641
H   H59       1.0  0.69106  0.07665  0.21773  1.0000 0.0789246641
H   H60       1.0  0.30894  0.92336  0.78227  1.0000 0.0789246641
H   H61       1.0  0.19106  0.92336  0.28227  1.0000 0.0789246641
H   H62       1.0  0.80893  0.07665  0.71773  1.0000 0.0789246641
H   H63       1.0  0.30894  0.42336  0.71773  1.0000 0.0789246641
H   H64       1.0  0.69106  0.57664  0.28227  1.0000 0.0789246641
H   H65       1.0  0.92263  0.22032  0.75950  1.0000 0.1070036635
H   H66       1.0  0.07736  0.77968  0.24050  1.0000 0.1070036635
H   H67       1.0  0.57736  0.72033  0.24050  1.0000 0.1070036635
H   H68       1.0  0.42263  0.27968  0.75950  1.0000 0.1070036635
H   H69       1.0  0.07736  0.27968  0.25950  1.0000 0.1070036635
H   H70       1.0  0.92263  0.72033  0.74050  1.0000 0.1070036635
H   H71       1.0  0.42263  0.77968  0.74050  1.0000 0.1070036635
H   H72       1.0  0.57736  0.22032  0.25950  1.0000 0.1070036635
H   H73       1.0  0.32898  0.44544  0.48307  1.0000 0.0789246641
H   H74       1.0  0.67102  0.55456  0.51693  1.0000 0.0789246641
H   H75       1.0  0.17101  0.94544  0.51693  1.0000 0.0789246641
H   H76       1.0  0.82898  0.05457  0.48307  1.0000 0.0789246641
H   H77       1.0  0.67102  0.05457  0.98307  1.0000 0.0789246641
H   H78       1.0  0.32898  0.94544  0.01693  1.0000 0.0789246641
H   H79       1.0  0.82898  0.55456  0.01693  1.0000 0.0789246641
H   H80       1.0  0.17101  0.44544  0.98307  1.0000 0.0789246641
H   H81       1.0  0.20717  0.67696  0.83022  1.0000 0.0789246641
H   H82       1.0  0.79282  0.32305  0.16978  1.0000 0.0789246641
H   H83       1.0  0.29283  0.17696  0.16978  1.0000 0.0789246641
H   H84       1.0  0.70717  0.82305  0.83022  1.0000 0.0789246641
H   H85       1.0  0.79282  0.82305  0.33022  1.0000 0.0789246641
H   H86       1.0  0.20717  0.17696  0.66978  1.0000 0.0789246641
H   H87       1.0  0.70717  0.32305  0.66978  1.0000 0.0789246641
H   H88       1.0  0.29283  0.67696  0.33022  1.0000 0.0789246641
H   H89       1.0  0.36307  0.80154  0.42774  1.0000 0.1006792718
H   H90       1.0  0.63692  0.19846  0.57226  1.0000 0.1006792718
H   H91       1.0  0.13692  0.30155  0.57226  1.0000 0.1006792718
H   H92       1.0  0.86308  0.69846  0.42774  1.0000 0.1006792718
H   H93       1.0  0.63692  0.69846  0.92774  1.0000 0.1006792718
H   H94       1.0  0.36307  0.30155  0.07226  1.0000 0.1006792718
H   H95       1.0  0.86308  0.19846  0.07226  1.0000 0.1006792718
H   H96       1.0  0.13692  0.80154  0.92774  1.0000 0.1006792718
C   C1        1.0  0.24332  0.13406  0.14805  1.0000 0.1284481157
C   C2        1.0  0.75667  0.86594  0.85195  1.0000 0.1284481157
C   C3        1.0  0.25667  0.63406  0.85195  1.0000 0.1284481157
C   C4        1.0  0.74333  0.36595  0.14805  1.0000 0.1284481157
C   C5        1.0  0.75667  0.36595  0.64805  1.0000 0.1284481157
C   C6        1.0  0.24332  0.63406  0.35195  1.0000 0.1284481157
C   C7        1.0  0.74333  0.86594  0.35195  1.0000 0.1284481157
C   C8        1.0  0.25667  0.13406  0.64805  1.0000 0.1284481157
C   C9        1.0  0.62639  0.91198  0.40527  1.0000 -0.0674880979
C   C10       1.0  0.37361  0.08803  0.59473  1.0000 -0.0674880979
C   C11       1.0  0.87360  0.41197  0.59473  1.0000 -0.0674880979
C   C12       1.0  0.12640  0.58803  0.40527  1.0000 -0.0674880979
C   C13       1.0  0.37361  0.58803  0.90527  1.0000 -0.0674880979
C   C14       1.0  0.62639  0.41197  0.09473  1.0000 -0.0674880979
C   C15       1.0  0.12640  0.08803  0.09473  1.0000 -0.0674880979
C   C16       1.0  0.87360  0.91198  0.90527  1.0000 -0.0674880979
C   C17       1.0  0.67356  0.98277  0.38233  1.0000 -0.0610766937
C   C18       1.0  0.32643  0.01724  0.61767  1.0000 -0.0610766937
C   C19       1.0  0.82644  0.48276  0.61767  1.0000 -0.0610766937
C   C20       1.0  0.17356  0.51724  0.38233  1.0000 -0.0610766937
C   C21       1.0  0.32643  0.51724  0.88233  1.0000 -0.0610766937
C   C22       1.0  0.67356  0.48276  0.11767  1.0000 -0.0610766937
C   C23       1.0  0.17356  0.01724  0.11767  1.0000 -0.0610766937
C   C24       1.0  0.82644  0.98277  0.88233  1.0000 -0.0610766937
C   C25       1.0  0.53977  0.67329  0.27109  1.0000 -0.0674880979
C   C26       1.0  0.46022  0.32672  0.72891  1.0000 -0.0674880979
C   C27       1.0  0.96022  0.17329  0.72891  1.0000 -0.0674880979
C   C28       1.0  0.03977  0.82671  0.27109  1.0000 -0.0674880979
C   C29       1.0  0.46022  0.82671  0.77109  1.0000 -0.0674880979
C   C30       1.0  0.53977  0.17329  0.22891  1.0000 -0.0674880979
C   C31       1.0  0.03977  0.32672  0.22891  1.0000 -0.0674880979
C   C32       1.0  0.96022  0.67329  0.77109  1.0000 -0.0674880979
C   C33       1.0  0.84100  0.65912  0.38256  1.0000 -0.0674880979
C   C34       1.0  0.15900  0.34087  0.61744  1.0000 -0.0674880979
C   C35       1.0  0.65900  0.15912  0.61744  1.0000 -0.0610766937
C   C36       1.0  0.34099  0.84088  0.38256  1.0000 -0.0674880979
C   C37       1.0  0.15900  0.84088  0.88256  1.0000 -0.0674880979
C   C38       1.0  0.84100  0.15912  0.11744  1.0000 -0.0674880979
C   C39       1.0  0.34099  0.34087  0.11744  1.0000 -0.0610766937
C   C40       1.0  0.65900  0.65912  0.88256  1.0000 -0.0674880979
C   C41       1.0  0.75101  0.59703  0.30825  1.0000 0.1284481157
C   C42       1.0  0.24899  0.40298  0.69175  1.0000 0.1284481157
C   C43       1.0  0.74899  0.09703  0.69175  1.0000 0.1284481157
C   C44       1.0  0.25100  0.90297  0.30825  1.0000 0.1284481157
C   C45       1.0  0.24899  0.90297  0.80825  1.0000 0.1284481157
C   C46       1.0  0.75101  0.09703  0.19175  1.0000 0.1284481157
C   C47       1.0  0.25100  0.40298  0.19175  1.0000 0.1284481157
C   C48       1.0  0.74899  0.59703  0.80825  1.0000 0.1284481157
C   C49       1.0  0.85585  0.11083  0.45562  1.0000 0.1245015979
C   C50       1.0  0.14414  0.88918  0.54438  1.0000 0.1245015979
C   C51       1.0  0.64414  0.61082  0.54438  1.0000 0.1245015979
C   C52       1.0  0.35585  0.38918  0.45562  1.0000 0.1245015979
C   C53       1.0  0.14414  0.38918  0.95562  1.0000 0.1245015979
C   C54       1.0  0.85585  0.61082  0.04438  1.0000 0.1245015979
C   C55       1.0  0.35585  0.88918  0.04438  1.0000 0.1245015979
C   C56       1.0  0.64414  0.11083  0.95562  1.0000 0.1245015979
C   C57       1.0  0.88822  0.11360  0.16827  1.0000 -0.0610766937
C   C58       1.0  0.11177  0.88640  0.83173  1.0000 -0.0610766937
C   C59       1.0  0.61177  0.61360  0.83173  1.0000 -0.0610766937
C   C60       1.0  0.38822  0.38639  0.16827  1.0000 -0.0610766937
C   C61       1.0  0.11177  0.38639  0.66827  1.0000 -0.0610766937
C   C62       1.0  0.88822  0.61360  0.33173  1.0000 -0.0610766937
C   C63       1.0  0.38822  0.88640  0.33173  1.0000 -0.0610766937
C   C64       1.0  0.61177  0.11360  0.66827  1.0000 -0.0610766937
C   C65       1.0  0.99499  0.90031  0.36425  1.0000 0.1284481157
C   C66       1.0  0.00500  0.09970  0.63575  1.0000 0.1284481157
C   C67       1.0  0.50500  0.40031  0.63575  1.0000 0.1284481157
C   C68       1.0  0.49500  0.59969  0.36425  1.0000 0.1284481157
C   C69       1.0  0.00500  0.59969  0.86425  1.0000 0.1284481157
C   C70       1.0  0.99499  0.40031  0.13575  1.0000 0.1284481157
C   C71       1.0  0.49500  0.09970  0.13575  1.0000 0.1284481157
C   C72       1.0  0.50500  0.90031  0.86425  1.0000 0.1284481157
C   C73       1.0  0.97679  0.88395  0.24823  1.0000 -0.0610766937
C   C74       1.0  0.02320  0.11606  0.75177  1.0000 -0.0610766937
C   C75       1.0  0.52320  0.38394  0.75177  1.0000 -0.0610766937
C   C76       1.0  0.47679  0.61606  0.24823  1.0000 -0.0610766937
C   C77       1.0  0.02320  0.61606  0.74823  1.0000 -0.0610766937
C   C78       1.0  0.97679  0.38394  0.25177  1.0000 -0.0610766937
C   C79       1.0  0.47679  0.11606  0.25177  1.0000 -0.0610766937
C   C80       1.0  0.52320  0.88395  0.74823  1.0000 -0.0610766937
C   C81       1.0  0.59667  0.74122  0.56472  1.0000 -0.0674880979
C   C82       1.0  0.40333  0.25879  0.43528  1.0000 -0.0674880979
C   C83       1.0  0.90333  0.24122  0.43528  1.0000 -0.0674880979
C   C84       1.0  0.09666  0.75879  0.56472  1.0000 -0.0674880979
C   C85       1.0  0.40333  0.75879  0.06472  1.0000 -0.0674880979
C   C86       1.0  0.59667  0.24122  0.93528  1.0000 -0.0674880979
C   C87       1.0  0.09666  0.25879  0.93528  1.0000 -0.0674880979
C   C88       1.0  0.90333  0.74122  0.06472  1.0000 -0.0674880979
C   C89       1.0  0.90427  0.19598  0.37087  1.0000 -0.0610766937
C   C90       1.0  0.09572  0.80403  0.62913  1.0000 -0.0548616529
C   C91       1.0  0.59572  0.69598  0.62913  1.0000 -0.0610766937
C   C92       1.0  0.40427  0.30403  0.37087  1.0000 -0.0610766937
C   C93       1.0  0.09572  0.30403  0.87087  1.0000 -0.0610766937
C   C94       1.0  0.90427  0.69598  0.12913  1.0000 -0.0610766937
C   C95       1.0  0.40427  0.80403  0.12913  1.0000 -0.0610766937
C   C96       1.0  0.59572  0.19598  0.87087  1.0000 -0.0548616529
N   N1        1.0  0.83053  0.07426  0.21538  1.0000 -0.2917714367
N   N2        1.0  0.16946  0.92575  0.78462  1.0000 -0.2917714367
N   N3        1.0  0.66946  0.57426  0.78462  1.0000 -0.2917714367
N   N4        1.0  0.33053  0.42574  0.21538  1.0000 -0.2917714367
N   N5        1.0  0.16946  0.42574  0.71538  1.0000 -0.2917714367
N   N6        1.0  0.83053  0.57426  0.28462  1.0000 -0.2917714367
N   N7        1.0  0.33053  0.92575  0.28462  1.0000 -0.2917714367
N   N8        1.0  0.66946  0.07426  0.71538  1.0000 -0.2917714367
N   N9        1.0  0.37413  0.88682  0.11582  1.0000 -0.2958127084
N   N10       1.0  0.62587  0.11319  0.88418  1.0000 -0.2958127084
N   N11       1.0  0.12587  0.38682  0.88418  1.0000 -0.2958127084
N   N12       1.0  0.87413  0.61318  0.11582  1.0000 -0.2958127084
N   N13       1.0  0.62587  0.61318  0.61582  1.0000 -0.2917714367
N   N14       1.0  0.37413  0.38682  0.38418  1.0000 -0.2958127084
N   N15       1.0  0.87413  0.11319  0.38418  1.0000 -0.2958127084
N   N16       1.0  0.12587  0.88682  0.61582  1.0000 -0.2958127084
N   N17       1.0  0.44856  0.06939  0.19233  1.0000 -0.2917714367
N   N18       1.0  0.55144  0.93062  0.80767  1.0000 -0.2917714367
N   N19       1.0  0.05143  0.56939  0.80767  1.0000 -0.2917714367
N   N20       1.0  0.94856  0.43062  0.19233  1.0000 -0.2917714367
N   N21       1.0  0.55144  0.43062  0.69233  1.0000 -0.2917714367
N   N22       1.0  0.44856  0.56939  0.30767  1.0000 -0.2917714367
N   N23       1.0  0.94856  0.93062  0.30767  1.0000 -0.2917714367
N   N24       1.0  0.05143  0.06939  0.69233  1.0000 -0.2917714367
N   N25       1.0  0.82888  0.33776  0.61416  1.0000 -0.2917714367
N   N26       1.0  0.17112  0.66224  0.38584  1.0000 -0.2917714367
N   N27       1.0  0.67112  0.83777  0.38584  1.0000 -0.2917714367
N   N28       1.0  0.32887  0.16224  0.61416  1.0000 -0.2917714367
N   N29       1.0  0.17112  0.16224  0.11416  1.0000 -0.2917714367
N   N30       1.0  0.82888  0.83777  0.88584  1.0000 -0.2917714367
N   N31       1.0  0.32887  0.66224  0.88584  1.0000 -0.2917714367
N   N32       1.0  0.67112  0.33776  0.11416  1.0000 -0.2917714367
N   N33       1.0  0.75211  0.45301  0.65139  1.0000 -0.2958127084
N   N34       1.0  0.24788  0.54700  0.34861  1.0000 -0.2958127084
N   N35       1.0  0.74789  0.95301  0.34861  1.0000 -0.2958127084
N   N36       1.0  0.25211  0.04700  0.65139  1.0000 -0.2958127084
N   N37       1.0  0.24788  0.04700  0.15139  1.0000 -0.2958127084
N   N38       1.0  0.75211  0.95301  0.84861  1.0000 -0.2958127084
N   N39       1.0  0.25211  0.54700  0.84861  1.0000 -0.2958127084
N   N40       1.0  0.74789  0.45301  0.15139  1.0000 -0.2958127084
N   N41       1.0  0.87248  0.18680  0.48903  1.0000 -0.2917714367
N   N42       1.0  0.12751  0.81321  0.51097  1.0000 -0.2917714367
N   N43       1.0  0.62752  0.68680  0.51097  1.0000 -0.2917714367
N   N44       1.0  0.37248  0.31321  0.48903  1.0000 -0.2917714367
N   N45       1.0  0.12751  0.31321  0.98903  1.0000 -0.2917714367
N   N46       1.0  0.87248  0.68680  0.01097  1.0000 -0.2917714367
N   N47       1.0  0.37248  0.81321  0.01097  1.0000 -0.2917714367
N   N48       1.0  0.62752  0.18680  0.98903  1.0000 -0.2917714367
N   N49       1.0  0.94889  0.16258  0.65510  1.0000 -0.2917714367
N   N50       1.0  0.05110  0.83742  0.34490  1.0000 -0.2917714367
N   N51       1.0  0.55110  0.66258  0.34490  1.0000 -0.2917714367
N   N52       1.0  0.44889  0.33743  0.65510  1.0000 -0.2917714367
N   N53       1.0  0.05110  0.33743  0.15510  1.0000 -0.2917714367
N   N54       1.0  0.94889  0.66258  0.84490  1.0000 -0.2917714367
N   N55       1.0  0.44889  0.83742  0.84490  1.0000 -0.2917714367
N   N56       1.0  0.55110  0.16258  0.15510  1.0000 -0.2917714367
N   N57       1.0  0.74626  0.14849  0.63278  1.0000 -0.2917714367
N   N58       1.0  0.25374  0.85152  0.36722  1.0000 -0.2958127084
N   N59       1.0  0.75374  0.64848  0.36722  1.0000 -0.2958127084
N   N60       1.0  0.24625  0.35152  0.63278  1.0000 -0.2958127084
N   N61       1.0  0.25374  0.35152  0.13278  1.0000 -0.2958127084
N   N62       1.0  0.74626  0.64848  0.86722  1.0000 -0.2958127084
N   N63       1.0  0.24625  0.85152  0.86722  1.0000 -0.2958127084
N   N64       1.0  0.75374  0.14849  0.13278  1.0000 -0.2917714367
