# DDEC6 charges by PACMAN v1.1 (https://github.com/mtap-research/PACMAN-charge/)
data_2022[Zn][pts]3[FSR]2
_chemical_formula_sum              "Zn12 H24 C80 O68"
_cell_length_a       18.566
_cell_length_b       8.0029
_cell_length_c       27.231
_cell_angle_alpha    90
_cell_angle_beta     90.472
_cell_angle_gamma    90

_symmetry_space_group_name_H-M    "P 1"
_symmetry_Int_Tables_number       1

loop_
  _symmetry_equiv_pos_as_xyz
  'x, y, z'

loop_
  _atom_site_type_symbol
  _atom_site_label
  _atom_site_symmetry_multiplicity
  _atom_site_fract_x
  _atom_site_fract_y
  _atom_site_fract_z
  _atom_site_occupancy
  _atom_site_charge
Zn  Zn1       1.0  0.24746  0.59905  0.89080  1.0000 0.9636037044
Zn  Zn2       1.0  0.75254  0.59905  0.60920  1.0000 0.9636037044
Zn  Zn3       1.0  0.75254  0.40095  0.10920  1.0000 0.9636037044
Zn  Zn4       1.0  0.24746  0.40095  0.39080  1.0000 0.9636037044
Zn  Zn5       1.0  0.24917  0.59718  0.60966  1.0000 0.9241080872
Zn  Zn6       1.0  0.75083  0.59718  0.89034  1.0000 0.9241080872
Zn  Zn7       1.0  0.75083  0.40282  0.39034  1.0000 0.9254475228
Zn  Zn8       1.0  0.24917  0.40282  0.10966  1.0000 0.9254475228
Zn  Zn9       1.0  0.27494  0.74242  0.05021  1.0000 0.9944944374
Zn  Zn10      1.0  0.72506  0.74242  0.44979  1.0000 0.9944944374
Zn  Zn11      1.0  0.72506  0.25758  0.94979  1.0000 0.9944944374
Zn  Zn12      1.0  0.27494  0.25758  0.55021  1.0000 0.9944944374
H   H1        1.0  0.22708  0.00530  0.01439  1.0000 0.4303024701
H   H2        1.0  0.77292  0.00530  0.48561  1.0000 0.4303024701
H   H3        1.0  0.77292  0.99470  0.98561  1.0000 0.4303024701
H   H4        1.0  0.22708  0.99470  0.51439  1.0000 0.4303024701
H   H5        1.0  0.21659  0.02007  0.06448  1.0000 0.3919790975
H   H6        1.0  0.78341  0.02007  0.43552  1.0000 0.3919790975
H   H7        1.0  0.78341  0.97993  0.93552  1.0000 0.3919790975
H   H8        1.0  0.21659  0.97993  0.56448  1.0000 0.3919790975
H   H9        1.0  0.24950  0.80399  0.75170  1.0000 0.1399764187
H   H10       1.0  0.75050  0.80399  0.74830  1.0000 0.1399764187
H   H11       1.0  0.75050  0.19601  0.24830  1.0000 0.1399764187
H   H12       1.0  0.24950  0.19601  0.25170  1.0000 0.1399764187
H   H13       1.0  0.26139  0.37882  0.74661  1.0000 0.1399764187
H   H14       1.0  0.73861  0.37882  0.75339  1.0000 0.1399764187
H   H15       1.0  0.73861  0.62118  0.25339  1.0000 0.1399764187
H   H16       1.0  0.26139  0.62118  0.24661  1.0000 0.1399764187
H   H17       1.0  0.51108  0.34830  0.07122  1.0000 0.1399764187
H   H18       1.0  0.48892  0.34830  0.42878  1.0000 0.1399764187
H   H19       1.0  0.48892  0.65170  0.92878  1.0000 0.1399764187
H   H20       1.0  0.51108  0.65170  0.57122  1.0000 0.1399764187
H   H21       1.0  0.02106  0.54039  0.58232  1.0000 0.1399764187
H   H22       1.0  0.97894  0.54039  0.91768  1.0000 0.1399764187
H   H23       1.0  0.97894  0.45961  0.41768  1.0000 0.1399764187
H   H24       1.0  0.02106  0.45961  0.08232  1.0000 0.1399764187
C   C1        1.0  0.26160  0.26970  0.65700  1.0000 0.6120302669
C   C2        1.0  0.73840  0.26970  0.84300  1.0000 0.6120302669
C   C3        1.0  0.73840  0.73030  0.34300  1.0000 0.6120302669
C   C4        1.0  0.26160  0.73030  0.15700  1.0000 0.6120302669
C   C5        1.0  0.24980  0.00070  0.70580  1.0000 -0.0189741372
C   C6        1.0  0.75020  0.00070  0.79420  1.0000 -0.0189741372
C   C7        1.0  0.75020  0.99930  0.29420  1.0000 -0.014488431
C   C8        1.0  0.24980  0.99930  0.20580  1.0000 -0.014488431
C   C9        1.0  0.25680  0.17470  0.70430  1.0000 -0.0404140957
C   C10       1.0  0.74320  0.17470  0.79570  1.0000 -0.0404140957
C   C11       1.0  0.74320  0.82530  0.29570  1.0000 -0.0404140957
C   C12       1.0  0.25680  0.82530  0.20430  1.0000 -0.0404140957
C   C13       1.0  0.26300  0.00660  0.79480  1.0000 -0.0020246105
C   C14       1.0  0.73700  0.00660  0.70520  1.0000 -0.0020246105
C   C15       1.0  0.73700  0.99340  0.20520  1.0000 -0.0020246105
C   C16       1.0  0.26300  0.99340  0.29480  1.0000 -0.0020246105
C   C17       1.0  0.26180  0.18270  0.79320  1.0000 -0.014488431
C   C18       1.0  0.73820  0.18270  0.70680  1.0000 -0.014488431
C   C19       1.0  0.73820  0.81730  0.20680  1.0000 -0.0189741372
C   C20       1.0  0.26180  0.81730  0.29320  1.0000 -0.0189741372
C   C21       1.0  0.25350  0.91980  0.75080  1.0000 -0.0971611541
C   C22       1.0  0.74650  0.91980  0.74920  1.0000 -0.0971611541
C   C23       1.0  0.74650  0.08020  0.24920  1.0000 -0.0971611541
C   C24       1.0  0.25350  0.08020  0.25080  1.0000 -0.0971611541
C   C25       1.0  0.26020  0.26270  0.74770  1.0000 -0.0871521904
C   C26       1.0  0.73980  0.26270  0.75230  1.0000 -0.0871521904
C   C27       1.0  0.73980  0.73730  0.25230  1.0000 -0.0871521904
C   C28       1.0  0.26020  0.73730  0.24770  1.0000 -0.0871521904
C   C29       1.0  0.07010  0.49080  0.51910  1.0000 -0.02682565
C   C30       1.0  0.92990  0.49080  0.98090  1.0000 -0.02682565
C   C31       1.0  0.92990  0.50920  0.48090  1.0000 -0.02682565
C   C32       1.0  0.07010  0.50920  0.01910  1.0000 -0.02682565
C   C33       1.0  0.14290  0.47440  0.54290  1.0000 0.6296735696
C   C34       1.0  0.85710  0.47440  0.95710  1.0000 0.6296735696
C   C35       1.0  0.85710  0.52560  0.45710  1.0000 0.6296735696
C   C36       1.0  0.14290  0.52560  0.04290  1.0000 0.6296735696
C   C37       1.0  0.23370  0.89800  0.66070  1.0000 0.5778027765
C   C38       1.0  0.76630  0.89800  0.83930  1.0000 0.5778027765
C   C39       1.0  0.76630  0.10200  0.33930  1.0000 0.5778027765
C   C40       1.0  0.23370  0.10200  0.16070  1.0000 0.5778027765
C   C41       1.0  0.25540  0.28360  0.84010  1.0000 0.5600091807
C   C42       1.0  0.74460  0.28360  0.65990  1.0000 0.5600091807
C   C43       1.0  0.74460  0.71640  0.15990  1.0000 0.5600091807
C   C44       1.0  0.25540  0.71640  0.34010  1.0000 0.5600091807
C   C45       1.0  0.36140  0.62500  0.96600  1.0000 0.6150789849
C   C46       1.0  0.63860  0.62500  0.53400  1.0000 0.6150789849
C   C47       1.0  0.63860  0.37500  0.03400  1.0000 0.6150789849
C   C48       1.0  0.36140  0.37500  0.46600  1.0000 0.6150789849
C   C49       1.0  0.28100  0.90370  0.83960  1.0000 0.5683184258
C   C50       1.0  0.71900  0.90370  0.66040  1.0000 0.5683184258
C   C51       1.0  0.71900  0.09630  0.16040  1.0000 0.5683184258
C   C52       1.0  0.28100  0.09630  0.33960  1.0000 0.5683184258
C   C53       1.0  0.43200  0.56080  0.98570  1.0000 -0.0189741372
C   C54       1.0  0.56800  0.56080  0.51430  1.0000 -0.0189741372
C   C55       1.0  0.56800  0.43920  0.01430  1.0000 -0.0189741372
C   C56       1.0  0.43200  0.43920  0.48570  1.0000 -0.0189741372
C   C57       1.0  0.50650  0.40940  0.04230  1.0000 -0.0871521904
C   C58       1.0  0.49350  0.40940  0.45770  1.0000 -0.0871521904
C   C59       1.0  0.49350  0.59060  0.95770  1.0000 -0.0871521904
C   C60       1.0  0.50650  0.59060  0.54230  1.0000 -0.0871521904
C   C61       1.0  0.11620  0.43230  0.43170  1.0000 0.5489322387
C   C62       1.0  0.88380  0.43230  0.06830  1.0000 0.5489322387
C   C63       1.0  0.88380  0.56770  0.56830  1.0000 0.5489322387
C   C64       1.0  0.11620  0.56770  0.93170  1.0000 0.5489322387
C   C65       1.0  0.43960  0.46740  0.02860  1.0000 -0.02682565
C   C66       1.0  0.56040  0.46740  0.47140  1.0000 -0.02682565
C   C67       1.0  0.56040  0.53260  0.97140  1.0000 -0.02682565
C   C68       1.0  0.43960  0.53260  0.52860  1.0000 -0.02682565
C   C69       1.0  0.01270  0.52380  0.54900  1.0000 -0.1073103592
C   C70       1.0  0.98730  0.52380  0.95100  1.0000 -0.1073103592
C   C71       1.0  0.98730  0.47620  0.45100  1.0000 -0.1073103592
C   C72       1.0  0.01270  0.47620  0.04900  1.0000 -0.1073103592
C   C73       1.0  0.05770  0.46650  0.46880  1.0000 -0.0020246105
C   C74       1.0  0.94230  0.46650  0.03120  1.0000 -0.0020246105
C   C75       1.0  0.94230  0.53350  0.53120  1.0000 -0.0020246105
C   C76       1.0  0.05770  0.53350  0.96880  1.0000 -0.0020246105
C   C77       1.0  0.37760  0.41230  0.06040  1.0000 0.5880243174
C   C78       1.0  0.62240  0.41230  0.43960  1.0000 0.5880243174
C   C79       1.0  0.62240  0.58770  0.93960  1.0000 0.5880243174
C   C80       1.0  0.37760  0.58770  0.56040  1.0000 0.5880243174
O   O1        1.0  0.34020  0.55870  0.92672  1.0000 -0.4698127479
O   O2        1.0  0.65980  0.55870  0.57328  1.0000 -0.4698127479
O   O3        1.0  0.65980  0.44130  0.07328  1.0000 -0.4698127479
O   O4        1.0  0.34020  0.44130  0.42672  1.0000 -0.4698127479
O   O5        1.0  0.23230  0.80470  0.85417  1.0000 -0.4698127479
O   O6        1.0  0.76770  0.80470  0.64583  1.0000 -0.4698127479
O   O7        1.0  0.76770  0.19530  0.14583  1.0000 -0.4698127479
O   O8        1.0  0.23230  0.19530  0.35417  1.0000 -0.4698127479
O   O9        1.0  0.26350  0.44060  0.83613  1.0000 -0.4698127479
O   O10       1.0  0.73650  0.44060  0.66387  1.0000 -0.4698127479
O   O11       1.0  0.73650  0.55940  0.16387  1.0000 -0.4698127479
O   O12       1.0  0.26350  0.55940  0.33613  1.0000 -0.4698127479
O   O13       1.0  0.29500  0.20570  0.62174  1.0000 -0.5124941252
O   O14       1.0  0.70500  0.20570  0.87826  1.0000 -0.5124941252
O   O15       1.0  0.70500  0.79430  0.37826  1.0000 -0.5124941252
O   O16       1.0  0.29500  0.79430  0.12174  1.0000 -0.5124941252
O   O17       1.0  0.26720  0.76010  0.65946  1.0000 -0.5003043757
O   O18       1.0  0.73280  0.76010  0.84054  1.0000 -0.5003043757
O   O19       1.0  0.73280  0.23990  0.34054  1.0000 -0.5003043757
O   O20       1.0  0.26720  0.23990  0.15946  1.0000 -0.5003043757
O   O21       1.0  0.17350  0.33350  0.54281  1.0000 -0.5584316858
O   O22       1.0  0.82650  0.33350  0.95719  1.0000 -0.5584316858
O   O23       1.0  0.82650  0.66650  0.45719  1.0000 -0.5584316858
O   O24       1.0  0.17350  0.66650  0.04281  1.0000 -0.5584316858
O   O25       1.0  0.18030  0.46600  0.44369  1.0000 -0.5003043757
O   O26       1.0  0.81970  0.46600  0.05631  1.0000 -0.5003043757
O   O27       1.0  0.81970  0.53400  0.55631  1.0000 -0.5003043757
O   O28       1.0  0.18030  0.53400  0.94369  1.0000 -0.5003043757
O   O29       1.0  0.16710  0.60530  0.56336  1.0000 -0.5212321587
O   O30       1.0  0.83290  0.60530  0.93664  1.0000 -0.5212321587
O   O31       1.0  0.83290  0.39470  0.43664  1.0000 -0.5212321587
O   O32       1.0  0.16710  0.39470  0.06336  1.0000 -0.5212321587
O   O33       1.0  0.32800  0.74200  0.98724  1.0000 -0.5466267772
O   O34       1.0  0.67200  0.74200  0.51276  1.0000 -0.5466267772
O   O35       1.0  0.67200  0.25800  0.01276  1.0000 -0.5466267772
O   O36       1.0  0.32800  0.25800  0.48724  1.0000 -0.5466267772
O   O37       1.0  0.18910  0.94780  0.63004  1.0000 -0.4698127479
O   O38       1.0  0.81090  0.94780  0.86996  1.0000 -0.4698127479
O   O39       1.0  0.81090  0.05220  0.36996  1.0000 -0.4698127479
O   O40       1.0  0.18910  0.05220  0.13004  1.0000 -0.4698127479
O   O41       1.0  0.23030  0.40880  0.65519  1.0000 -0.5124941252
O   O42       1.0  0.76970  0.40880  0.84481  1.0000 -0.5124941252
O   O43       1.0  0.76970  0.59120  0.34481  1.0000 -0.5124941252
O   O44       1.0  0.23030  0.59120  0.15519  1.0000 -0.5124941252
O   O45       1.0  0.32030  0.49930  0.06212  1.0000 -0.5691816666
O   O46       1.0  0.67970  0.49930  0.43788  1.0000 -0.5691816666
O   O47       1.0  0.67970  0.50070  0.93788  1.0000 -0.5691816666
O   O48       1.0  0.32030  0.50070  0.56212  1.0000 -0.5691816666
O   O49       1.0  0.34340  0.91020  0.85659  1.0000 -0.42741865
O   O50       1.0  0.65660  0.91020  0.64341  1.0000 -0.42741865
O   O51       1.0  0.65660  0.08980  0.14341  1.0000 -0.42741865
O   O52       1.0  0.34340  0.08980  0.35659  1.0000 -0.42741865
O   O53       1.0  0.24400  0.20670  0.87830  1.0000 -0.4131001063
O   O54       1.0  0.75600  0.20670  0.62170  1.0000 -0.4131001063
O   O55       1.0  0.75600  0.79330  0.12170  1.0000 -0.4131001063
O   O56       1.0  0.24400  0.79330  0.37830  1.0000 -0.4131001063
O   O57       1.0  0.09880  0.37060  0.39149  1.0000 -0.42741865
O   O58       1.0  0.90120  0.37060  0.10851  1.0000 -0.42741865
O   O59       1.0  0.90120  0.62940  0.60851  1.0000 -0.4184087522
O   O60       1.0  0.09880  0.62940  0.89149  1.0000 -0.42741865
O   O61       1.0  0.24970  0.98580  0.04290  1.0000 -0.6525189288
O   O62       1.0  0.75030  0.98580  0.45710  1.0000 -0.6525189288
O   O63       1.0  0.75030  0.01420  0.95710  1.0000 -0.6525189288
O   O64       1.0  0.24970  0.01420  0.54290  1.0000 -0.6525189288
O   O65       1.0  0.38240  0.28220  0.08350  1.0000 -0.4131001063
O   O66       1.0  0.61760  0.28220  0.41650  1.0000 -0.4184087522
O   O67       1.0  0.61760  0.71780  0.91650  1.0000 -0.4184087522
O   O68       1.0  0.38240  0.71780  0.58350  1.0000 -0.4184087522
