# DDEC6 charges by PACMAN v1.1 (https://github.com/mtap-research/PACMAN-charge/)
data_d1tb02176a2_FSR_pacman
_symmetry_space_group_name_H-M   'P 1'
_cell_length_a   19.14550000
_cell_length_b   19.14550000
_cell_length_c   19.11700000
_cell_angle_alpha   90.00000000
_cell_angle_beta   90.00000000
_cell_angle_gamma   90.00000000
_symmetry_Int_Tables_number   1
_chemical_formula_structural   Zn4H27C45N3O13
_chemical_formula_sum   'Zn16 H108 C180 N12 O52'
_cell_volume   7007.33960467
_cell_formula_units_Z   4
loop_
 _symmetry_equiv_pos_site_id
 _symmetry_equiv_pos_as_xyz
  1  'x, y, z'
loop_
 _atom_site_type_symbol
 _atom_site_label
 _atom_site_symmetry_multiplicity
 _atom_site_fract_x
 _atom_site_fract_y
 _atom_site_fract_z
 _atom_site_occupancy
 _atom_site_charge
Zn  Zn1  1  0.90881000  0.67693000  0.01680000  1.0 0.8935619278
Zn  Zn2  1  0.79876000  0.55756000  0.01700000  1.0 0.9100994451
Zn  Zn3  1  0.91605000  0.56294000  0.13930000  1.0 0.9362916632
Zn  Zn4  1  0.79237000  0.67669000  0.13000000  1.0 0.8960302604
Zn  Zn5  1  0.09119000  0.32307000  0.51680000  1.0 0.8935619278
Zn  Zn6  1  0.20124000  0.44244000  0.51700000  1.0 0.9100994451
Zn  Zn7  1  0.08395000  0.43706000  0.63930000  1.0 0.9362916632
Zn  Zn8  1  0.20763000  0.32331000  0.63000000  1.0 0.8960302604
Zn  Zn9  1  0.32307000  0.90881000  0.76680000  1.0 0.8935619278
Zn  Zn10  1  0.44244000  0.79876000  0.76700000  1.0 0.9100994451
Zn  Zn11  1  0.43706000  0.91605000  0.88930000  1.0 0.9362916632
Zn  Zn12  1  0.32331000  0.79237000  0.88000000  1.0 0.8960302604
Zn  Zn13  1  0.67693000  0.09119000  0.26680000  1.0 0.8935619278
Zn  Zn14  1  0.55756000  0.20124000  0.26700000  1.0 0.9100994451
Zn  Zn15  1  0.56294000  0.08395000  0.38930000  1.0 0.9362916632
Zn  Zn16  1  0.67669000  0.20763000  0.38000000  1.0 0.8960302604
H  H1  1  0.58640000  0.51990000  0.00310000  1.0 0.1206243409
H  H2  1  0.46530000  0.51450000  0.00570000  1.0 0.1263636632
H  H3  1  0.46080000  0.67800000  0.13740000  1.0 0.1206243409
H  H4  1  0.58190000  0.68350000  0.13480000  1.0 0.1107553182
H  H5  1  0.34520000  0.65860000  0.00980000  1.0 0.101132205
H  H6  1  0.11330000  0.69230000  0.97440000  1.0 0.1206243409
H  H7  1  0.23440000  0.69690000  0.97150000  1.0 0.1206243409
H  H8  1  0.24360000  0.54600000  0.11730000  1.0 0.1206243409
H  H9  1  0.12250000  0.54140000  0.12020000  1.0 0.1206243409
H  H10  1  0.75290000  0.57410000  0.79860000  1.0 0.1206243409
H  H11  1  0.73910000  0.58080000  0.67820000  1.0 0.1206243409
H  H12  1  0.90220000  0.71250000  0.66700000  1.0 0.1107553182
H  H13  1  0.91590000  0.70580000  0.78730000  1.0 0.101132205
H  H14  1  0.89530000  0.59900000  0.57590000  1.0 0.0869795924
H  H15  1  0.75390000  0.68650000  0.35030000  1.0 0.1107553182
H  H16  1  0.76210000  0.68020000  0.47120000  1.0 0.1206243409
H  H17  1  0.94140000  0.57260000  0.45340000  1.0 0.1206243409
H  H18  1  0.93320000  0.57890000  0.33250000  1.0 0.1206243409
H  H19  1  0.96470000  0.33450000  0.10360000  1.0 0.1107553182
H  H20  1  0.97620000  0.21450000  0.09140000  1.0 0.1206243409
H  H21  1  0.81340000  0.21240000  0.95870000  1.0 0.1206243409
H  H22  1  0.80190000  0.33240000  0.97090000  1.0 0.1206243409
H  H23  1  0.82800000  0.13280000  0.08380000  1.0 0.0869795924
H  H24  1  0.77530000  0.02140000  0.12760000  1.0 0.1206243409
H  H25  1  0.76830000  0.90050000  0.12840000  1.0 0.1107553182
H  H26  1  0.92180000  0.89080000  0.98530000  1.0 0.1206243409
H  H27  1  0.92870000  0.01170000  0.98450000  1.0 0.1206243409
H  H28  1  0.41360000  0.48010000  0.50310000  1.0 0.1206243409
H  H29  1  0.53470000  0.48550000  0.50570000  1.0 0.1263636632
H  H30  1  0.53920000  0.32200000  0.63740000  1.0 0.1206243409
H  H31  1  0.41810000  0.31650000  0.63480000  1.0 0.1107553182
H  H32  1  0.65480000  0.34140000  0.50980000  1.0 0.101132205
H  H33  1  0.88670000  0.30770000  0.47440000  1.0 0.1206243409
H  H34  1  0.76560000  0.30310000  0.47150000  1.0 0.1206243409
H  H35  1  0.75640000  0.45400000  0.61730000  1.0 0.1206243409
H  H36  1  0.87750000  0.45860000  0.62020000  1.0 0.1206243409
H  H37  1  0.24710000  0.42590000  0.29860000  1.0 0.1206243409
H  H38  1  0.26090000  0.41920000  0.17820000  1.0 0.1206243409
H  H39  1  0.09780000  0.28750000  0.16700000  1.0 0.1107553182
H  H40  1  0.08410000  0.29420000  0.28730000  1.0 0.101132205
H  H41  1  0.10470000  0.40100000  0.07590000  1.0 0.0869795924
H  H42  1  0.24610000  0.31350000  0.85030000  1.0 0.1107553182
H  H43  1  0.23790000  0.31980000  0.97120000  1.0 0.1206243409
H  H44  1  0.05860000  0.42740000  0.95340000  1.0 0.1206243409
H  H45  1  0.06680000  0.42110000  0.83250000  1.0 0.1206243409
H  H46  1  0.03530000  0.66550000  0.60360000  1.0 0.1107553182
H  H47  1  0.02380000  0.78550000  0.59140000  1.0 0.1206243409
H  H48  1  0.18660000  0.78760000  0.45870000  1.0 0.1206243409
H  H49  1  0.19810000  0.66760000  0.47090000  1.0 0.1206243409
H  H50  1  0.17200000  0.86720000  0.58380000  1.0 0.0869795924
H  H51  1  0.22470000  0.97860000  0.62760000  1.0 0.1206243409
H  H52  1  0.23170000  0.09950000  0.62840000  1.0 0.1107553182
H  H53  1  0.07820000  0.10920000  0.48530000  1.0 0.1206243409
H  H54  1  0.07130000  0.98830000  0.48450000  1.0 0.1206243409
H  H55  1  0.48010000  0.58640000  0.75310000  1.0 0.1206243409
H  H56  1  0.48550000  0.46530000  0.75570000  1.0 0.1263636632
H  H57  1  0.32200000  0.46080000  0.88740000  1.0 0.1206243409
H  H58  1  0.31650000  0.58190000  0.88480000  1.0 0.1107553182
H  H59  1  0.34140000  0.34520000  0.75980000  1.0 0.101132205
H  H60  1  0.30770000  0.11330000  0.72440000  1.0 0.1206243409
H  H61  1  0.30310000  0.23440000  0.72150000  1.0 0.1206243409
H  H62  1  0.45400000  0.24360000  0.86730000  1.0 0.1206243409
H  H63  1  0.45860000  0.12250000  0.87020000  1.0 0.1206243409
H  H64  1  0.42590000  0.75290000  0.54860000  1.0 0.1206243409
H  H65  1  0.41920000  0.73910000  0.42820000  1.0 0.1206243409
H  H66  1  0.28750000  0.90220000  0.41700000  1.0 0.1107553182
H  H67  1  0.29420000  0.91590000  0.53730000  1.0 0.101132205
H  H68  1  0.40100000  0.89530000  0.32590000  1.0 0.0869795924
H  H69  1  0.31350000  0.75390000  0.10030000  1.0 0.1107553182
H  H70  1  0.31980000  0.76210000  0.22120000  1.0 0.1206243409
H  H71  1  0.42740000  0.94140000  0.20340000  1.0 0.1206243409
H  H72  1  0.42110000  0.93320000  0.08250000  1.0 0.1206243409
H  H73  1  0.66550000  0.96470000  0.85360000  1.0 0.1107553182
H  H74  1  0.78550000  0.97620000  0.84140000  1.0 0.1206243409
H  H75  1  0.78760000  0.81340000  0.70870000  1.0 0.1206243409
H  H76  1  0.66760000  0.80190000  0.72090000  1.0 0.1206243409
H  H77  1  0.86720000  0.82800000  0.83380000  1.0 0.0869795924
H  H78  1  0.97860000  0.77530000  0.87760000  1.0 0.1206243409
H  H79  1  0.09950000  0.76830000  0.87840000  1.0 0.1107553182
H  H80  1  0.10920000  0.92180000  0.73530000  1.0 0.1206243409
H  H81  1  0.98830000  0.92870000  0.73450000  1.0 0.1206243409
H  H82  1  0.51990000  0.41360000  0.25310000  1.0 0.1206243409
H  H83  1  0.51450000  0.53470000  0.25570000  1.0 0.1263636632
H  H84  1  0.67800000  0.53920000  0.38740000  1.0 0.1206243409
H  H85  1  0.68350000  0.41810000  0.38480000  1.0 0.1107553182
H  H86  1  0.65860000  0.65480000  0.25980000  1.0 0.101132205
H  H87  1  0.69230000  0.88670000  0.22440000  1.0 0.1206243409
H  H88  1  0.69690000  0.76560000  0.22150000  1.0 0.1206243409
H  H89  1  0.54600000  0.75640000  0.36730000  1.0 0.1206243409
H  H90  1  0.54140000  0.87750000  0.37020000  1.0 0.1206243409
H  H91  1  0.57410000  0.24710000  0.04860000  1.0 0.1206243409
H  H92  1  0.58080000  0.26090000  0.92820000  1.0 0.1206243409
H  H93  1  0.71250000  0.09780000  0.91700000  1.0 0.1107553182
H  H94  1  0.70580000  0.08410000  0.03730000  1.0 0.101132205
H  H95  1  0.59900000  0.10470000  0.82590000  1.0 0.0869795924
H  H96  1  0.68650000  0.24610000  0.60030000  1.0 0.1107553182
H  H97  1  0.68020000  0.23790000  0.72120000  1.0 0.1206243409
H  H98  1  0.57260000  0.05860000  0.70340000  1.0 0.1206243409
H  H99  1  0.57890000  0.06680000  0.58250000  1.0 0.1206243409
H  H100  1  0.33450000  0.03530000  0.35360000  1.0 0.1107553182
H  H101  1  0.21450000  0.02380000  0.34140000  1.0 0.1206243409
H  H102  1  0.21240000  0.18660000  0.20870000  1.0 0.1206243409
H  H103  1  0.33240000  0.19810000  0.22090000  1.0 0.1206243409
H  H104  1  0.13280000  0.17200000  0.33380000  1.0 0.0869795924
H  H105  1  0.02140000  0.22470000  0.37760000  1.0 0.1206243409
H  H106  1  0.90050000  0.23170000  0.37840000  1.0 0.1107553182
H  H107  1  0.89080000  0.07820000  0.23530000  1.0 0.1206243409
H  H108  1  0.01170000  0.07130000  0.23450000  1.0 0.1206243409
C  C1  1  0.67430000  0.60770000  0.06850000  1.0 0.5839549435
C  C2  1  0.59610000  0.60220000  0.06870000  1.0 -0.0523952253
C  C3  1  0.56120000  0.55160000  0.03000000  1.0 -0.090497279
C  C4  1  0.48870000  0.54840000  0.03160000  1.0 -0.1896382856
C  C5  1  0.45110000  0.59570000  0.07180000  1.0 0.201351518
C  C6  1  0.48600000  0.64630000  0.11050000  1.0 -0.1896382856
C  C7  1  0.55850000  0.64960000  0.10890000  1.0 -0.0982618138
C  C8  1  0.32790000  0.62580000  0.04130000  1.0 0.0596353842
C  C9  1  0.10590000  0.61640000  0.04760000  1.0 -0.0394445953
C  C10  1  0.13940000  0.66300000  0.00300000  1.0 -0.090497279
C  C11  1  0.21200000  0.66570000  0.00130000  1.0 -0.1499529324
C  C12  1  0.25100000  0.62190000  0.04410000  1.0 0.0739192797
C  C13  1  0.21750000  0.57530000  0.08860000  1.0 -0.1499529324
C  C14  1  0.14490000  0.57260000  0.09040000  1.0 -0.0982618138
C  C15  1  0.02760000  0.61460000  0.04840000  1.0 0.5719213717
C  C16  1  0.84353000  0.63397000  0.88280000  1.0 0.5629789514
C  C17  1  0.83576000  0.63925000  0.80490000  1.0 -0.0394445953
C  C18  1  0.78280000  0.60181000  0.77220000  1.0 -0.090497279
C  C19  1  0.77457000  0.60586000  0.70010000  1.0 -0.1896382856
C  C20  1  0.81928000  0.64734000  0.66070000  1.0 0.1889109911
C  C21  1  0.87224000  0.68477000  0.69340000  1.0 -0.2005151639
C  C22  1  0.88048000  0.68073000  0.76550000  1.0 -0.1085931499
C  C23  1  0.85868000  0.62126000  0.55290000  1.0 0.0596353842
C  C24  1  0.84276000  0.63330000  0.32940000  1.0 -0.090497279
C  C25  1  0.79149000  0.66366000  0.37100000  1.0 -0.090497279
C  C26  1  0.79640000  0.65991000  0.44340000  1.0 -0.1274657397
C  C27  1  0.85260000  0.62580000  0.47430000  1.0 0.0739192797
C  C28  1  0.90384000  0.59544000  0.43280000  1.0 -0.1596402244
C  C29  1  0.89893000  0.59919000  0.36030000  1.0 -0.0805729856
C  C30  1  0.83871000  0.63656000  0.25430000  1.0 0.5719213717
C  C31  1  0.87397000  0.42290000  0.04574000  1.0 0.5291214866
C  C32  1  0.88220000  0.34530000  0.03850000  1.0 -0.0394445953
C  C33  1  0.93440000  0.31000000  0.07460000  1.0 -0.1085931499
C  C34  1  0.94120000  0.23810000  0.06730000  1.0 -0.1896382856
C  C35  1  0.89593000  0.20150000  0.02387000  1.0 0.1889109911
C  C36  1  0.84370000  0.23680000  0.98780000  1.0 -0.1896382856
C  C37  1  0.83690000  0.30880000  0.99510000  1.0 -0.1085931499
C  C38  1  0.85610000  0.10430000  0.05634000  1.0 0.0394790677
C  C39  1  0.85267000  0.02860000  0.05598000  1.0 0.0484737439
C  C40  1  0.80462000  0.99530000  0.09907000  1.0 -0.1499529324
C  C41  1  0.80048000  0.92280000  0.09954000  1.0 -0.0982618138
C  C42  1  0.84437000  0.88360000  0.05690000  1.0 -0.0394445953
C  C43  1  0.89241000  0.91700000  0.01381000  1.0 -0.1085931499
C  C44  1  0.89656000  0.98940000  0.01335000  1.0 -0.1423801349
C  C45  1  0.83880000  0.80550000  0.05842000  1.0 0.5719213717
C  C46  1  0.32570000  0.39230000  0.56850000  1.0 0.5839549435
C  C47  1  0.40390000  0.39780000  0.56870000  1.0 -0.0523952253
C  C48  1  0.43880000  0.44840000  0.53000000  1.0 -0.0805729856
C  C49  1  0.51130000  0.45160000  0.53160000  1.0 -0.1896382856
C  C50  1  0.54890000  0.40430000  0.57180000  1.0 0.201351518
C  C51  1  0.51400000  0.35370000  0.61050000  1.0 -0.1896382856
C  C52  1  0.44150000  0.35040000  0.60890000  1.0 -0.0982618138
C  C53  1  0.67210000  0.37420000  0.54130000  1.0 0.0596353842
C  C54  1  0.89410000  0.38360000  0.54760000  1.0 -0.0394445953
C  C55  1  0.86060000  0.33700000  0.50300000  1.0 -0.090497279
C  C56  1  0.78800000  0.33430000  0.50130000  1.0 -0.1499529324
C  C57  1  0.74900000  0.37810000  0.54410000  1.0 0.0739192797
C  C58  1  0.78250000  0.42470000  0.58860000  1.0 -0.1499529324
C  C59  1  0.85510000  0.42740000  0.59040000  1.0 -0.0982618138
C  C60  1  0.97240000  0.38540000  0.54840000  1.0 0.5719213717
C  C61  1  0.15647000  0.36603000  0.38280000  1.0 0.5629789514
C  C62  1  0.16424000  0.36075000  0.30490000  1.0 -0.0394445953
C  C63  1  0.21720000  0.39819000  0.27220000  1.0 -0.090497279
C  C64  1  0.22543000  0.39414000  0.20010000  1.0 -0.1896382856
C  C65  1  0.18072000  0.35266000  0.16070000  1.0 0.1889109911
C  C66  1  0.12776000  0.31523000  0.19340000  1.0 -0.2005151639
C  C67  1  0.11952000  0.31927000  0.26550000  1.0 -0.1085931499
C  C68  1  0.14132000  0.37874000  0.05290000  1.0 0.0596353842
C  C69  1  0.15724000  0.36670000  0.82940000  1.0 -0.090497279
C  C70  1  0.20851000  0.33634000  0.87100000  1.0 -0.090497279
C  C71  1  0.20360000  0.34009000  0.94340000  1.0 -0.1274657397
C  C72  1  0.14740000  0.37420000  0.97430000  1.0 0.0755746944
C  C73  1  0.09616000  0.40456000  0.93280000  1.0 -0.1596402244
C  C74  1  0.10107000  0.40081000  0.86030000  1.0 -0.0805729856
C  C75  1  0.16129000  0.36344000  0.75430000  1.0 0.5719213717
C  C76  1  0.12603000  0.57710000  0.54574000  1.0 0.5291214866
C  C77  1  0.11780000  0.65470000  0.53850000  1.0 -0.0394445953
C  C78  1  0.06560000  0.69000000  0.57460000  1.0 -0.1085931499
C  C79  1  0.05880000  0.76190000  0.56730000  1.0 -0.1896382856
C  C80  1  0.10407000  0.79850000  0.52387000  1.0 0.1889109911
C  C81  1  0.15630000  0.76320000  0.48780000  1.0 -0.1896382856
C  C82  1  0.16310000  0.69120000  0.49510000  1.0 -0.1085931499
C  C83  1  0.14390000  0.89570000  0.55634000  1.0 0.0394790677
C  C84  1  0.14733000  0.97140000  0.55598000  1.0 0.0484737439
C  C85  1  0.19538000  0.00470000  0.59907000  1.0 -0.1499529324
C  C86  1  0.19952000  0.07720000  0.59954000  1.0 -0.0982618138
C  C87  1  0.15563000  0.11640000  0.55690000  1.0 -0.0394445953
C  C88  1  0.10759000  0.08300000  0.51381000  1.0 -0.1085931499
C  C89  1  0.10344000  0.01060000  0.51335000  1.0 -0.1423801349
C  C90  1  0.16120000  0.19450000  0.55842000  1.0 0.5719213717
C  C91  1  0.39230000  0.67430000  0.81850000  1.0 0.5839549435
C  C92  1  0.39780000  0.59610000  0.81870000  1.0 -0.0523952253
C  C93  1  0.44840000  0.56120000  0.78000000  1.0 -0.090497279
C  C94  1  0.45160000  0.48870000  0.78160000  1.0 -0.1896382856
C  C95  1  0.40430000  0.45110000  0.82180000  1.0 0.201351518
C  C96  1  0.35370000  0.48600000  0.86050000  1.0 -0.1896382856
C  C97  1  0.35040000  0.55850000  0.85890000  1.0 -0.0982618138
C  C98  1  0.37420000  0.32790000  0.79130000  1.0 0.0596353842
C  C99  1  0.38360000  0.10590000  0.79760000  1.0 -0.0394445953
C  C100  1  0.33700000  0.13940000  0.75300000  1.0 -0.090497279
C  C101  1  0.33430000  0.21200000  0.75130000  1.0 -0.1499529324
C  C102  1  0.37810000  0.25100000  0.79410000  1.0 0.0739192797
C  C103  1  0.42470000  0.21750000  0.83860000  1.0 -0.1499529324
C  C104  1  0.42740000  0.14490000  0.84040000  1.0 -0.0982618138
C  C105  1  0.38540000  0.02760000  0.79840000  1.0 0.5719213717
C  C106  1  0.36603000  0.84353000  0.63280000  1.0 0.5629789514
C  C107  1  0.36075000  0.83576000  0.55490000  1.0 -0.0394445953
C  C108  1  0.39819000  0.78280000  0.52220000  1.0 -0.090497279
C  C109  1  0.39414000  0.77457000  0.45010000  1.0 -0.1896382856
C  C110  1  0.35266000  0.81928000  0.41070000  1.0 0.1889109911
C  C111  1  0.31523000  0.87224000  0.44340000  1.0 -0.2005151639
C  C112  1  0.31927000  0.88048000  0.51550000  1.0 -0.1085931499
C  C113  1  0.37874000  0.85868000  0.30290000  1.0 0.0596353842
C  C114  1  0.36670000  0.84276000  0.07940000  1.0 -0.090497279
C  C115  1  0.33634000  0.79149000  0.12100000  1.0 -0.090497279
C  C116  1  0.34009000  0.79640000  0.19340000  1.0 -0.1274657397
C  C117  1  0.37420000  0.85260000  0.22430000  1.0 0.0739192797
C  C118  1  0.40456000  0.90384000  0.18280000  1.0 -0.1596402244
C  C119  1  0.40081000  0.89893000  0.11030000  1.0 -0.0805729856
C  C120  1  0.36344000  0.83871000  0.00430000  1.0 0.5719213717
C  C121  1  0.57710000  0.87397000  0.79574000  1.0 0.5291214866
C  C122  1  0.65470000  0.88220000  0.78850000  1.0 -0.0394445953
C  C123  1  0.69000000  0.93440000  0.82460000  1.0 -0.1085931499
C  C124  1  0.76190000  0.94120000  0.81730000  1.0 -0.1896382856
C  C125  1  0.79850000  0.89593000  0.77387000  1.0 0.1889109911
C  C126  1  0.76320000  0.84370000  0.73780000  1.0 -0.1896382856
C  C127  1  0.69120000  0.83690000  0.74510000  1.0 -0.1085931499
C  C128  1  0.89570000  0.85610000  0.80634000  1.0 0.0394790677
C  C129  1  0.97140000  0.85267000  0.80598000  1.0 0.0484737439
C  C130  1  0.00470000  0.80462000  0.84907000  1.0 -0.1499529324
C  C131  1  0.07720000  0.80048000  0.84954000  1.0 -0.0982618138
C  C132  1  0.11640000  0.84437000  0.80690000  1.0 -0.0394445953
C  C133  1  0.08300000  0.89241000  0.76381000  1.0 -0.1085931499
C  C134  1  0.01060000  0.89656000  0.76335000  1.0 -0.1423801349
C  C135  1  0.19450000  0.83880000  0.80842000  1.0 0.5719213717
C  C136  1  0.60770000  0.32570000  0.31850000  1.0 0.5839549435
C  C137  1  0.60220000  0.40390000  0.31870000  1.0 -0.0523952253
C  C138  1  0.55160000  0.43880000  0.28000000  1.0 -0.0805729856
C  C139  1  0.54840000  0.51130000  0.28160000  1.0 -0.1896382856
C  C140  1  0.59570000  0.54890000  0.32180000  1.0 0.201351518
C  C141  1  0.64630000  0.51400000  0.36050000  1.0 -0.1896382856
C  C142  1  0.64960000  0.44150000  0.35890000  1.0 -0.0982618138
C  C143  1  0.62580000  0.67210000  0.29130000  1.0 0.0596353842
C  C144  1  0.61640000  0.89410000  0.29760000  1.0 -0.0394445953
C  C145  1  0.66300000  0.86060000  0.25300000  1.0 -0.090497279
C  C146  1  0.66570000  0.78800000  0.25130000  1.0 -0.1499529324
C  C147  1  0.62190000  0.74900000  0.29410000  1.0 0.0739192797
C  C148  1  0.57530000  0.78250000  0.33860000  1.0 -0.1499529324
C  C149  1  0.57260000  0.85510000  0.34040000  1.0 -0.0982618138
C  C150  1  0.61460000  0.97240000  0.29840000  1.0 0.5719213717
C  C151  1  0.63397000  0.15647000  0.13280000  1.0 0.5629789514
C  C152  1  0.63925000  0.16424000  0.05490000  1.0 -0.0394445953
C  C153  1  0.60181000  0.21720000  0.02220000  1.0 -0.090497279
C  C154  1  0.60586000  0.22543000  0.95010000  1.0 -0.1896382856
C  C155  1  0.64734000  0.18072000  0.91070000  1.0 0.1889109911
C  C156  1  0.68477000  0.12776000  0.94340000  1.0 -0.2005151639
C  C157  1  0.68073000  0.11952000  0.01550000  1.0 -0.1085931499
C  C158  1  0.62126000  0.14132000  0.80290000  1.0 0.0596353842
C  C159  1  0.63330000  0.15724000  0.57940000  1.0 -0.090497279
C  C160  1  0.66366000  0.20851000  0.62100000  1.0 -0.090497279
C  C161  1  0.65991000  0.20360000  0.69340000  1.0 -0.1274657397
C  C162  1  0.62580000  0.14740000  0.72430000  1.0 0.0755746944
C  C163  1  0.59544000  0.09616000  0.68280000  1.0 -0.1596402244
C  C164  1  0.59919000  0.10107000  0.61030000  1.0 -0.0805729856
C  C165  1  0.63656000  0.16129000  0.50430000  1.0 0.5719213717
C  C166  1  0.42290000  0.12603000  0.29574000  1.0 0.5291214866
C  C167  1  0.34530000  0.11780000  0.28850000  1.0 -0.0394445953
C  C168  1  0.31000000  0.06560000  0.32460000  1.0 -0.1085931499
C  C169  1  0.23810000  0.05880000  0.31730000  1.0 -0.1896382856
C  C170  1  0.20150000  0.10407000  0.27387000  1.0 0.1889109911
C  C171  1  0.23680000  0.15630000  0.23780000  1.0 -0.1896382856
C  C172  1  0.30880000  0.16310000  0.24510000  1.0 -0.1085931499
C  C173  1  0.10430000  0.14390000  0.30634000  1.0 0.0394790677
C  C174  1  0.02860000  0.14733000  0.30598000  1.0 0.0484737439
C  C175  1  0.99530000  0.19538000  0.34907000  1.0 -0.1499529324
C  C176  1  0.92280000  0.19952000  0.34954000  1.0 -0.0982618138
C  C177  1  0.88360000  0.15563000  0.30690000  1.0 -0.0394445953
C  C178  1  0.91700000  0.10759000  0.26381000  1.0 -0.1085931499
C  C179  1  0.98940000  0.10344000  0.26335000  1.0 -0.1423801349
C  C180  1  0.80550000  0.16120000  0.30842000  1.0 0.5719213717
N  N1  1  0.37380000  0.59260000  0.07380000  1.0 -0.285752626
N  N2  1  0.80921000  0.65065000  0.58370000  1.0 -0.2774127813
N  N3  1  0.90165000  0.12630000  0.01503000  1.0 -0.1725896713
N  N4  1  0.62620000  0.40740000  0.57380000  1.0 -0.285752626
N  N5  1  0.19079000  0.34935000  0.08370000  1.0 -0.2774127813
N  N6  1  0.09835000  0.87370000  0.51503000  1.0 -0.1725896713
N  N7  1  0.40740000  0.37380000  0.82380000  1.0 -0.285752626
N  N8  1  0.34935000  0.80921000  0.33370000  1.0 -0.2774127813
N  N9  1  0.87370000  0.90165000  0.76503000  1.0 -0.1782490628
N  N10  1  0.59260000  0.62620000  0.32380000  1.0 -0.285752626
N  N11  1  0.65065000  0.19079000  0.83370000  1.0 -0.2774127813
N  N12  1  0.12630000  0.09835000  0.26503000  1.0 -0.1725896713
O  O1  1  0.69320000  0.65520000  0.10570000  1.0 -0.5062506551
O  O2  1  0.70020000  0.56350000  0.03150000  1.0 -0.4785237813
O  O3  1  0.00160000  0.65590000  0.00820000  1.0 -0.4785237813
O  O4  1  0.00360000  0.57240000  0.08890000  1.0 -0.5241424279
O  O5  1  0.80284000  0.59693000  0.91400000  1.0 -0.5005669486
O  O6  1  0.88911000  0.66592000  0.91280000  1.0 -0.4934085326
O  O7  1  0.78954000  0.66641000  0.22820000  1.0 -0.5005669486
O  O8  1  0.88600000  0.60849000  0.22320000  1.0 -0.5267722922
O  O9  1  0.83090000  0.45940000  0.01720000  1.0 -0.3935147839
O  O10  1  0.90690000  0.46460000  0.08000000  1.0 -0.4186489748
O  O11  1  0.79651000  0.77780000  0.09643000  1.0 -0.5062506551
O  O12  1  0.88054000  0.77990000  0.01843000  1.0 -0.5005669486
O  O13  1  0.85030000  0.62050000  0.07540000  1.0 -1.0101142244
O  O14  1  0.30680000  0.34480000  0.60570000  1.0 -0.5062506551
O  O15  1  0.29980000  0.43650000  0.53150000  1.0 -0.4785237813
O  O16  1  0.99840000  0.34410000  0.50820000  1.0 -0.4785237813
O  O17  1  0.99640000  0.42760000  0.58890000  1.0 -0.5241424279
O  O18  1  0.19716000  0.40307000  0.41400000  1.0 -0.5005669486
O  O19  1  0.11089000  0.33408000  0.41280000  1.0 -0.4934085326
O  O20  1  0.21046000  0.33359000  0.72820000  1.0 -0.5005669486
O  O21  1  0.11400000  0.39151000  0.72320000  1.0 -0.5267722922
O  O22  1  0.16910000  0.54060000  0.51720000  1.0 -0.3935147839
O  O23  1  0.09310000  0.53540000  0.58000000  1.0 -0.4186489748
O  O24  1  0.20349000  0.22220000  0.59643000  1.0 -0.5062506551
O  O25  1  0.11946000  0.22010000  0.51843000  1.0 -0.5005669486
O  O26  1  0.14970000  0.37950000  0.57540000  1.0 -1.0101142244
O  O27  1  0.34480000  0.69320000  0.85570000  1.0 -0.5062506551
O  O28  1  0.43650000  0.70020000  0.78150000  1.0 -0.4785237813
O  O29  1  0.34410000  0.00160000  0.75820000  1.0 -0.4785237813
O  O30  1  0.42760000  0.00360000  0.83890000  1.0 -0.5241424279
O  O31  1  0.40307000  0.80284000  0.66400000  1.0 -0.5005669486
O  O32  1  0.33408000  0.88911000  0.66280000  1.0 -0.4934085326
O  O33  1  0.33359000  0.78954000  0.97820000  1.0 -0.5005669486
O  O34  1  0.39151000  0.88600000  0.97320000  1.0 -0.5241424279
O  O35  1  0.54060000  0.83090000  0.76720000  1.0 -0.3935147839
O  O36  1  0.53540000  0.90690000  0.83000000  1.0 -0.4186489748
O  O37  1  0.22220000  0.79651000  0.84643000  1.0 -0.5062506551
O  O38  1  0.22010000  0.88054000  0.76843000  1.0 -0.5005669486
O  O39  1  0.37950000  0.85030000  0.82540000  1.0 -1.0101142244
O  O40  1  0.65520000  0.30680000  0.35570000  1.0 -0.5062506551
O  O41  1  0.56350000  0.29980000  0.28150000  1.0 -0.4785237813
O  O42  1  0.65590000  0.99840000  0.25820000  1.0 -0.4785237813
O  O43  1  0.57240000  0.99640000  0.33890000  1.0 -0.5241424279
O  O44  1  0.59693000  0.19716000  0.16400000  1.0 -0.5005669486
O  O45  1  0.66592000  0.11089000  0.16280000  1.0 -0.4934085326
O  O46  1  0.66641000  0.21046000  0.47820000  1.0 -0.5005669486
O  O47  1  0.60849000  0.11400000  0.47320000  1.0 -0.5267722922
O  O48  1  0.45940000  0.16910000  0.26720000  1.0 -0.3935147839
O  O49  1  0.46460000  0.09310000  0.33000000  1.0 -0.4186489748
O  O50  1  0.77780000  0.20349000  0.34643000  1.0 -0.5062506551
O  O51  1  0.77990000  0.11946000  0.26843000  1.0 -0.5005669486
O  O52  1  0.62050000  0.14970000  0.32540000  1.0 -1.0101142244
