# DDEC6 charges by PACMAN v1.1 (https://github.com/mtap-research/PACMAN-charge/)
data_c9tc05113a2_FSR_pacman
_symmetry_space_group_name_H-M   'P 1'
_cell_length_a   9.97920000
_cell_length_b   9.97920000
_cell_length_c   43.85500000
_cell_angle_alpha   90.00000000
_cell_angle_beta   90.00000000
_cell_angle_gamma   90.00000000
_symmetry_Int_Tables_number   1
_chemical_formula_structural   InH6C16(NO4)2
_chemical_formula_sum   'In4 H24 C64 N8 O32'
_cell_volume   4367.27529343
_cell_formula_units_Z   4
loop_
 _symmetry_equiv_pos_site_id
 _symmetry_equiv_pos_as_xyz
  1  'x, y, z'
loop_
 _atom_site_type_symbol
 _atom_site_label
 _atom_site_symmetry_multiplicity
 _atom_site_fract_x
 _atom_site_fract_y
 _atom_site_fract_z
 _atom_site_occupancy
 _atom_site_charge
In  In1  1  0.95299000  0.95299000  0.12500000  1.0 1.3253843851
In  In2  1  0.04701000  0.04701000  0.62500000  1.0 1.3239615626
In  In3  1  0.04701000  0.95299000  0.87500000  1.0 1.3239615626
In  In4  1  0.95299000  0.04701000  0.37500000  1.0 1.3253843851
H  H1  1  0.65400000  0.95620000  0.04420000  1.0 0.1334700353
H  H2  1  0.45110000  0.97070000  0.12370000  1.0 0.1508567996
H  H3  1  0.24950000  0.94390000  0.04500000  1.0 0.1508567996
H  H4  1  0.34600000  0.04380000  0.54420000  1.0 0.1334700353
H  H5  1  0.54890000  0.02930000  0.62370000  1.0 0.1508567996
H  H6  1  0.75050000  0.05610000  0.54500000  1.0 0.1508567996
H  H7  1  0.04380000  0.65400000  0.79420000  1.0 0.1334700353
H  H8  1  0.02930000  0.45110000  0.87370000  1.0 0.1508567996
H  H9  1  0.05610000  0.24950000  0.79500000  1.0 0.1508567996
H  H10  1  0.95620000  0.34600000  0.29420000  1.0 0.1334700353
H  H11  1  0.97070000  0.54890000  0.37370000  1.0 0.1508567996
H  H12  1  0.94390000  0.75050000  0.29500000  1.0 0.1508567996
H  H13  1  0.34600000  0.95620000  0.95580000  1.0 0.1334700353
H  H14  1  0.54890000  0.97070000  0.87630000  1.0 0.1508567996
H  H15  1  0.75050000  0.94390000  0.95500000  1.0 0.1508567996
H  H16  1  0.65400000  0.04380000  0.45580000  1.0 0.1334700353
H  H17  1  0.45110000  0.02930000  0.37630000  1.0 0.1508567996
H  H18  1  0.24950000  0.05610000  0.45500000  1.0 0.1508567996
H  H19  1  0.95620000  0.65400000  0.20580000  1.0 0.1334700353
H  H20  1  0.97070000  0.45110000  0.12630000  1.0 0.1508567996
H  H21  1  0.94390000  0.24950000  0.20500000  1.0 0.1508567996
H  H22  1  0.04380000  0.34600000  0.70580000  1.0 0.1334700353
H  H23  1  0.02930000  0.54890000  0.62630000  1.0 0.1508567996
H  H24  1  0.05610000  0.75050000  0.70500000  1.0 0.1508567996
C  C1  1  0.56610000  0.95360000  0.08650000  1.0 0.0232345759
C  C2  1  0.57230000  0.95520000  0.05440000  1.0 -0.1493903779
C  C3  1  0.45360000  0.95510000  0.03891000  1.0 0.1726896737
C  C4  1  0.45030000  0.96180000  0.10260000  1.0 -0.0802553508
C  C5  1  0.32990000  0.95640000  0.08642000  1.0 0.0297806709
C  C6  1  0.33020000  0.95070000  0.05550000  1.0 -0.1405272101
C  C7  1  0.70150000  0.94890000  0.10220000  1.0 0.5516610809
C  C8  1  0.19720000  0.96170000  0.10420000  1.0 0.5149978466
C  C9  1  0.43390000  0.04640000  0.58650000  1.0 0.0232345759
C  C10  1  0.42770000  0.04480000  0.55440000  1.0 -0.1493903779
C  C11  1  0.54640000  0.04490000  0.53891000  1.0 0.1726896737
C  C12  1  0.54970000  0.03820000  0.60260000  1.0 -0.0802553508
C  C13  1  0.67010000  0.04360000  0.58642000  1.0 0.0297806709
C  C14  1  0.66980000  0.04930000  0.55550000  1.0 -0.1405272101
C  C15  1  0.29850000  0.05110000  0.60220000  1.0 0.5516610809
C  C16  1  0.80280000  0.03830000  0.60420000  1.0 0.5149978466
C  C17  1  0.04640000  0.56610000  0.83650000  1.0 0.0232345759
C  C18  1  0.04480000  0.57230000  0.80440000  1.0 -0.1493903779
C  C19  1  0.04490000  0.45360000  0.78891000  1.0 0.1726896737
C  C20  1  0.03820000  0.45030000  0.85260000  1.0 -0.0802553508
C  C21  1  0.04360000  0.32990000  0.83642000  1.0 0.0297806709
C  C22  1  0.04930000  0.33020000  0.80550000  1.0 -0.1405272101
C  C23  1  0.05110000  0.70150000  0.85220000  1.0 0.5516610809
C  C24  1  0.03830000  0.19720000  0.85420000  1.0 0.5155958004
C  C25  1  0.95360000  0.43390000  0.33650000  1.0 0.0232345759
C  C26  1  0.95520000  0.42770000  0.30440000  1.0 -0.1493903779
C  C27  1  0.95510000  0.54640000  0.28891000  1.0 0.1726896737
C  C28  1  0.96180000  0.54970000  0.35260000  1.0 -0.0802553508
C  C29  1  0.95640000  0.67010000  0.33642000  1.0 0.0297806709
C  C30  1  0.95070000  0.66980000  0.30550000  1.0 -0.1405272101
C  C31  1  0.94890000  0.29850000  0.35220000  1.0 0.5516610809
C  C32  1  0.96170000  0.80280000  0.35420000  1.0 0.5149978466
C  C33  1  0.43390000  0.95360000  0.91350000  1.0 0.0232345759
C  C34  1  0.42770000  0.95520000  0.94560000  1.0 -0.1493903779
C  C35  1  0.54640000  0.95510000  0.96109000  1.0 0.1726896737
C  C36  1  0.54970000  0.96180000  0.89740000  1.0 -0.0802553508
C  C37  1  0.67010000  0.95640000  0.91358000  1.0 0.0297806709
C  C38  1  0.66980000  0.95070000  0.94450000  1.0 -0.1405272101
C  C39  1  0.29850000  0.94890000  0.89780000  1.0 0.5516610809
C  C40  1  0.80280000  0.96170000  0.89580000  1.0 0.5155958004
C  C41  1  0.56610000  0.04640000  0.41350000  1.0 0.0232345759
C  C42  1  0.57230000  0.04480000  0.44560000  1.0 -0.1493903779
C  C43  1  0.45360000  0.04490000  0.46109000  1.0 0.1726896737
C  C44  1  0.45030000  0.03820000  0.39740000  1.0 -0.0802553508
C  C45  1  0.32990000  0.04360000  0.41358000  1.0 0.0297806709
C  C46  1  0.33020000  0.04930000  0.44450000  1.0 -0.1405272101
C  C47  1  0.70150000  0.05110000  0.39780000  1.0 0.5516610809
C  C48  1  0.19720000  0.03830000  0.39580000  1.0 0.5149978466
C  C49  1  0.95360000  0.56610000  0.16350000  1.0 0.0232345759
C  C50  1  0.95520000  0.57230000  0.19560000  1.0 -0.1493903779
C  C51  1  0.95510000  0.45360000  0.21109000  1.0 0.1726896737
C  C52  1  0.96180000  0.45030000  0.14740000  1.0 -0.0802553508
C  C53  1  0.95640000  0.32990000  0.16358000  1.0 0.0297806709
C  C54  1  0.95070000  0.33020000  0.19450000  1.0 -0.1405272101
C  C55  1  0.94890000  0.70150000  0.14780000  1.0 0.5516610809
C  C56  1  0.96170000  0.19720000  0.14580000  1.0 0.5149978466
C  C57  1  0.04640000  0.43390000  0.66350000  1.0 0.0232345759
C  C58  1  0.04480000  0.42770000  0.69560000  1.0 -0.1493903779
C  C59  1  0.04490000  0.54640000  0.71109000  1.0 0.1726896737
C  C60  1  0.03820000  0.54970000  0.64740000  1.0 -0.0802553508
C  C61  1  0.04360000  0.67010000  0.66358000  1.0 0.0297806709
C  C62  1  0.04930000  0.66980000  0.69450000  1.0 -0.1405272101
C  C63  1  0.05110000  0.29850000  0.64780000  1.0 0.5516610809
C  C64  1  0.03830000  0.80280000  0.64580000  1.0 0.5149978466
N  N1  1  0.44240000  0.95250000  0.00619000  1.0 -0.1339289051
N  N2  1  0.55760000  0.04750000  0.50619000  1.0 -0.1339289051
N  N3  1  0.04750000  0.44240000  0.75619000  1.0 -0.1339289051
N  N4  1  0.95250000  0.55760000  0.25619000  1.0 -0.1339289051
N  N5  1  0.55760000  0.95250000  0.99381000  1.0 -0.1339289051
N  N6  1  0.44240000  0.04750000  0.49381000  1.0 -0.1339289051
N  N7  1  0.95250000  0.44240000  0.24381000  1.0 -0.1339289051
N  N8  1  0.04750000  0.55760000  0.74381000  1.0 -0.1339289051
O  O1  1  0.80840000  0.95840000  0.08782000  1.0 -0.4911747024
O  O2  1  0.70570000  0.96010000  0.13124000  1.0 -0.4911747024
O  O3  1  0.19010000  0.94600000  0.13031000  1.0 -0.4227638327
O  O4  1  0.09680000  0.94950000  0.08642000  1.0 -0.4808183767
O  O5  1  0.19160000  0.04160000  0.58782000  1.0 -0.4911747024
O  O6  1  0.29430000  0.03990000  0.63124000  1.0 -0.4911747024
O  O7  1  0.80990000  0.05400000  0.63031000  1.0 -0.4227638327
O  O8  1  0.90320000  0.05050000  0.58642000  1.0 -0.4808183767
O  O9  1  0.04160000  0.80840000  0.83782000  1.0 -0.4911747024
O  O10  1  0.03990000  0.70570000  0.88124000  1.0 -0.4911747024
O  O11  1  0.05400000  0.19010000  0.88031000  1.0 -0.4227638327
O  O12  1  0.05050000  0.09680000  0.83642000  1.0 -0.4808183767
O  O13  1  0.95840000  0.19160000  0.33782000  1.0 -0.4911747024
O  O14  1  0.96010000  0.29430000  0.38124000  1.0 -0.4911747024
O  O15  1  0.94600000  0.80990000  0.38031000  1.0 -0.4227638327
O  O16  1  0.94950000  0.90320000  0.33642000  1.0 -0.4808183767
O  O17  1  0.19160000  0.95840000  0.91218000  1.0 -0.4911747024
O  O18  1  0.29430000  0.96010000  0.86876000  1.0 -0.4911747024
O  O19  1  0.80990000  0.94600000  0.86969000  1.0 -0.4227638327
O  O20  1  0.90320000  0.94950000  0.91358000  1.0 -0.4808183767
O  O21  1  0.80840000  0.04160000  0.41218000  1.0 -0.4911747024
O  O22  1  0.70570000  0.03990000  0.36876000  1.0 -0.4911747024
O  O23  1  0.19010000  0.05400000  0.36969000  1.0 -0.4227638327
O  O24  1  0.09680000  0.05050000  0.41358000  1.0 -0.4808183767
O  O25  1  0.95840000  0.80840000  0.16218000  1.0 -0.4911747024
O  O26  1  0.96010000  0.70570000  0.11876000  1.0 -0.4911747024
O  O27  1  0.94600000  0.19010000  0.11969000  1.0 -0.4227638327
O  O28  1  0.94950000  0.09680000  0.16358000  1.0 -0.4808183767
O  O29  1  0.04160000  0.19160000  0.66218000  1.0 -0.4911747024
O  O30  1  0.03990000  0.29430000  0.61876000  1.0 -0.4911747024
O  O31  1  0.05400000  0.80990000  0.61969000  1.0 -0.4227638327
O  O32  1  0.05050000  0.90320000  0.66358000  1.0 -0.4808183767
