# DDEC6 charges by PACMAN v1.1 (https://github.com/mtap-research/PACMAN-charge/)
data_c5dt03710g2_5_FSR_pacman
_symmetry_space_group_name_H-M   'P 1'
_cell_length_a   15.48930000
_cell_length_b   15.48930000
_cell_length_c   9.58260000
_cell_angle_alpha   90.00000000
_cell_angle_beta   90.00000000
_cell_angle_gamma   90.00000000
_symmetry_Int_Tables_number   1
_chemical_formula_structural   ZnH10C11NO4
_chemical_formula_sum   'Zn4 H40 C44 N4 O16'
_cell_volume   2299.04219869
_cell_formula_units_Z   4
loop_
 _symmetry_equiv_pos_site_id
 _symmetry_equiv_pos_as_xyz
  1  'x, y, z'
loop_
 _atom_site_type_symbol
 _atom_site_label
 _atom_site_symmetry_multiplicity
 _atom_site_fract_x
 _atom_site_fract_y
 _atom_site_fract_z
 _atom_site_occupancy
 _atom_site_charge
Zn  Zn1  1  0.50000000  0.50000000  0.64965000  1.0 0.7278517221
Zn  Zn2  1  0.50000000  0.50000000  0.35035000  1.0 0.7278517221
Zn  Zn3  1  0.00000000  0.00000000  0.35035000  1.0 0.7278517221
Zn  Zn4  1  0.00000000  0.00000000  0.64965000  1.0 0.7278517221
H  H1  1  0.28160000  0.32500000  0.29540000  1.0 0.1330096104
H  H2  1  0.71840000  0.67500000  0.29540000  1.0 0.1330096104
H  H3  1  0.32500000  0.71840000  0.29540000  1.0 0.1330096104
H  H4  1  0.67500000  0.28160000  0.29540000  1.0 0.1330096104
H  H5  1  0.28160000  0.67500000  0.70460000  1.0 0.1330096104
H  H6  1  0.71840000  0.32500000  0.70460000  1.0 0.1330096104
H  H7  1  0.32500000  0.28160000  0.70460000  1.0 0.1330096104
H  H8  1  0.67500000  0.71840000  0.70460000  1.0 0.1330096104
H  H9  1  0.21840000  0.17500000  0.70460000  1.0 0.1330096104
H  H10  1  0.78160000  0.82500000  0.70460000  1.0 0.1330096104
H  H11  1  0.17500000  0.78160000  0.70460000  1.0 0.1330096104
H  H12  1  0.82500000  0.21840000  0.70460000  1.0 0.1330096104
H  H13  1  0.21840000  0.82500000  0.29540000  1.0 0.1330096104
H  H14  1  0.78160000  0.17500000  0.29540000  1.0 0.1330096104
H  H15  1  0.17500000  0.21840000  0.29540000  1.0 0.1330096104
H  H16  1  0.82500000  0.78160000  0.29540000  1.0 0.1330096104
H  H17  1  0.61810000  0.44350000  0.86280000  0.375 0.0714706193
H  H18  1  0.38190000  0.55650000  0.86280000  0.375 0.0714706193
H  H19  1  0.44350000  0.38190000  0.86280000  0.375 0.0714706193
H  H20  1  0.55650000  0.61810000  0.86280000  0.375 0.0714706193
H  H21  1  0.61810000  0.55650000  0.13720000  0.375 0.0714706193
H  H22  1  0.38190000  0.44350000  0.13720000  0.375 0.0714706193
H  H23  1  0.44350000  0.61810000  0.13720000  0.375 0.0714706193
H  H24  1  0.55650000  0.38190000  0.13720000  0.375 0.0714706193
H  H25  1  0.88190000  0.05650000  0.13720000  0.375 0.0714706193
H  H26  1  0.11810000  0.94350000  0.13720000  0.375 0.0714706193
H  H27  1  0.05650000  0.11810000  0.13720000  0.375 0.0714706193
H  H28  1  0.94350000  0.88190000  0.13720000  0.375 0.0714706193
H  H29  1  0.88190000  0.94350000  0.86280000  0.375 0.0714706193
H  H30  1  0.11810000  0.05650000  0.86280000  0.375 0.0714706193
H  H31  1  0.05650000  0.88190000  0.86280000  0.375 0.0714706193
H  H32  1  0.94350000  0.11810000  0.86280000  0.375 0.0714706193
H  H33  1  0.61930000  0.54070000  0.92240000  0.375 0.0714706193
H  H34  1  0.38070000  0.45930000  0.92240000  0.375 0.0714706193
H  H35  1  0.54070000  0.38070000  0.92240000  0.375 0.0714706193
H  H36  1  0.45930000  0.61930000  0.92240000  0.375 0.0714706193
H  H37  1  0.61930000  0.45930000  0.07760000  0.375 0.0714706193
H  H38  1  0.38070000  0.54070000  0.07760000  0.375 0.0714706193
H  H39  1  0.54070000  0.61930000  0.07760000  0.375 0.0714706193
H  H40  1  0.45930000  0.38070000  0.07760000  0.375 0.0714706193
H  H41  1  0.88070000  0.95930000  0.07760000  0.375 0.0714706193
H  H42  1  0.11930000  0.04070000  0.07760000  0.375 0.0714706193
H  H43  1  0.95930000  0.11930000  0.07760000  0.375 0.0714706193
H  H44  1  0.04070000  0.88070000  0.07760000  0.375 0.0714706193
H  H45  1  0.88070000  0.04070000  0.92240000  0.375 0.0714706193
H  H46  1  0.11930000  0.95930000  0.92240000  0.375 0.0714706193
H  H47  1  0.95930000  0.88070000  0.92240000  0.375 0.0714706193
H  H48  1  0.04070000  0.11930000  0.92240000  0.375 0.0714706193
H  H49  1  0.62310000  0.45600000  0.13800000  0.375 0.0714706193
H  H50  1  0.37690000  0.54400000  0.13800000  0.375 0.0714706193
H  H51  1  0.45600000  0.37690000  0.13800000  0.375 0.0714706193
H  H52  1  0.54400000  0.62310000  0.13800000  0.375 0.0714706193
H  H53  1  0.62310000  0.54400000  0.86200000  0.375 0.0714706193
H  H54  1  0.37690000  0.45600000  0.86200000  0.375 0.0714706193
H  H55  1  0.45600000  0.62310000  0.86200000  0.375 0.0714706193
H  H56  1  0.54400000  0.37690000  0.86200000  0.375 0.0714706193
H  H57  1  0.87690000  0.04400000  0.86200000  0.375 0.0714706193
H  H58  1  0.12310000  0.95600000  0.86200000  0.375 0.0714706193
H  H59  1  0.04400000  0.12310000  0.86200000  0.375 0.0714706193
H  H60  1  0.95600000  0.87690000  0.86200000  0.375 0.0714706193
H  H61  1  0.87690000  0.95600000  0.13800000  0.375 0.0714706193
H  H62  1  0.12310000  0.04400000  0.13800000  0.375 0.0714706193
H  H63  1  0.04400000  0.87690000  0.13800000  0.375 0.0714706193
H  H64  1  0.95600000  0.12310000  0.13800000  0.375 0.0714706193
H  H65  1  0.55490000  0.38670000  0.07820000  0.375 0.0714706193
H  H66  1  0.44510000  0.61330000  0.07820000  0.375 0.0714706193
H  H67  1  0.38670000  0.44510000  0.07820000  0.375 0.0714706193
H  H68  1  0.61330000  0.55490000  0.07820000  0.375 0.075273845
H  H69  1  0.55490000  0.61330000  0.92180000  0.375 0.075273845
H  H70  1  0.44510000  0.38670000  0.92180000  0.375 0.075273845
H  H71  1  0.38670000  0.55490000  0.92180000  0.375 0.075273845
H  H72  1  0.61330000  0.44510000  0.92180000  0.375 0.075273845
H  H73  1  0.94510000  0.11330000  0.92180000  0.375 0.075273845
H  H74  1  0.05490000  0.88670000  0.92180000  0.375 0.075273845
H  H75  1  0.11330000  0.05490000  0.92180000  0.375 0.075273845
H  H76  1  0.88670000  0.94510000  0.92180000  0.375 0.075273845
H  H77  1  0.94510000  0.88670000  0.07820000  0.375 0.075273845
H  H78  1  0.05490000  0.11330000  0.07820000  0.375 0.075273845
H  H79  1  0.11330000  0.94510000  0.07820000  0.375 0.075273845
H  H80  1  0.88670000  0.05490000  0.07820000  0.375 0.075273845
C  C1  1  0.38249000  0.38249000  0.50000000  1.0 0.4902698134
C  C2  1  0.61751000  0.61751000  0.50000000  1.0 0.4902698134
C  C3  1  0.38249000  0.61751000  0.50000000  1.0 0.4902698134
C  C4  1  0.61751000  0.38249000  0.50000000  1.0 0.4902698134
C  C5  1  0.11751000  0.11751000  0.50000000  1.0 0.4902698134
C  C6  1  0.88249000  0.88249000  0.50000000  1.0 0.4902698134
C  C7  1  0.11751000  0.88249000  0.50000000  1.0 0.4902698134
C  C8  1  0.88249000  0.11751000  0.50000000  1.0 0.4902698134
C  C9  1  0.31374000  0.31374000  0.50000000  1.0 0.0107094919
C  C10  1  0.68626000  0.68626000  0.50000000  1.0 0.0107094919
C  C11  1  0.31374000  0.68626000  0.50000000  1.0 0.0107094919
C  C12  1  0.68626000  0.31374000  0.50000000  1.0 0.0107094919
C  C13  1  0.18626000  0.18626000  0.50000000  1.0 0.0107094919
C  C14  1  0.81374000  0.81374000  0.50000000  1.0 0.0107094919
C  C15  1  0.18626000  0.81374000  0.50000000  1.0 0.0107094919
C  C16  1  0.81374000  0.18626000  0.50000000  1.0 0.0107094919
C  C17  1  0.26893000  0.29459000  0.37902000  1.0 -0.1351435746
C  C18  1  0.73107000  0.70541000  0.37902000  1.0 -0.1349592175
C  C19  1  0.29459000  0.73107000  0.37902000  1.0 -0.1351435746
C  C20  1  0.70541000  0.26893000  0.37902000  1.0 -0.1349592175
C  C21  1  0.26893000  0.70541000  0.62098000  1.0 -0.1351435746
C  C22  1  0.73107000  0.29459000  0.62098000  1.0 -0.1351435746
C  C23  1  0.29459000  0.26893000  0.62098000  1.0 -0.1351435746
C  C24  1  0.70541000  0.73107000  0.62098000  1.0 -0.1351435746
C  C25  1  0.23107000  0.20541000  0.62098000  1.0 -0.1349592175
C  C26  1  0.76893000  0.79459000  0.62098000  1.0 -0.1349592175
C  C27  1  0.20541000  0.76893000  0.62098000  1.0 -0.1349592175
C  C28  1  0.79459000  0.23107000  0.62098000  1.0 -0.1351435746
C  C29  1  0.23107000  0.79459000  0.37902000  1.0 -0.1349592175
C  C30  1  0.76893000  0.20541000  0.37902000  1.0 -0.1351435746
C  C31  1  0.20541000  0.23107000  0.37902000  1.0 -0.1349592175
C  C32  1  0.79459000  0.76893000  0.37902000  1.0 -0.1349592175
C  C33  1  0.58620000  0.48600000  0.92030000  0.375 -0.08226821
C  C34  1  0.41380000  0.51400000  0.92030000  0.375 -0.08226821
C  C35  1  0.48600000  0.41380000  0.92030000  0.375 -0.08226821
C  C36  1  0.51400000  0.58620000  0.92030000  0.375 -0.08226821
C  C37  1  0.58620000  0.51400000  0.07970000  0.375 -0.08226821
C  C38  1  0.41380000  0.48600000  0.07970000  0.375 -0.08226821
C  C39  1  0.48600000  0.58620000  0.07970000  0.375 -0.08226821
C  C40  1  0.51400000  0.41380000  0.07970000  0.375 -0.08226821
C  C41  1  0.91380000  0.01400000  0.07970000  0.375 -0.08226821
C  C42  1  0.08620000  0.98600000  0.07970000  0.375 -0.08226821
C  C43  1  0.01400000  0.08620000  0.07970000  0.375 -0.08226821
C  C44  1  0.98600000  0.91380000  0.07970000  0.375 -0.08226821
C  C45  1  0.91380000  0.98600000  0.92030000  0.375 -0.08226821
C  C46  1  0.08620000  0.01400000  0.92030000  0.375 -0.08226821
C  C47  1  0.01400000  0.91380000  0.92030000  0.375 -0.08226821
C  C48  1  0.98600000  0.08620000  0.92030000  0.375 -0.08226821
C  C49  1  0.57050000  0.44860000  0.08040000  0.375 -0.08226821
C  C50  1  0.42950000  0.55140000  0.08040000  0.375 -0.08226821
C  C51  1  0.44860000  0.42950000  0.08040000  0.375 -0.08226821
C  C52  1  0.55140000  0.57050000  0.08040000  0.375 -0.08226821
C  C53  1  0.57050000  0.55140000  0.91960000  0.375 -0.08226821
C  C54  1  0.42950000  0.44860000  0.91960000  0.375 -0.08226821
C  C55  1  0.44860000  0.57050000  0.91960000  0.375 -0.08226821
C  C56  1  0.55140000  0.42950000  0.91960000  0.375 -0.08226821
C  C57  1  0.92950000  0.05140000  0.91960000  0.375 -0.08226821
C  C58  1  0.07050000  0.94860000  0.91960000  0.375 -0.08226821
C  C59  1  0.05140000  0.07050000  0.91960000  0.375 -0.08226821
C  C60  1  0.94860000  0.92950000  0.91960000  0.375 -0.08226821
C  C61  1  0.92950000  0.94860000  0.08040000  0.375 -0.08226821
C  C62  1  0.07050000  0.05140000  0.08040000  0.375 -0.08226821
C  C63  1  0.05140000  0.92950000  0.08040000  0.375 -0.08226821
C  C64  1  0.94860000  0.07050000  0.08040000  0.375 -0.08226821
N  N1  1  0.50000000  0.50000000  0.86520000  1.0 -0.0971943124
N  N2  1  0.50000000  0.50000000  0.13480000  1.0 -0.0971943124
N  N3  1  0.00000000  0.00000000  0.13480000  1.0 -0.0971943124
N  N4  1  0.00000000  0.00000000  0.86520000  1.0 -0.0971943124
O  O1  1  0.41832000  0.39932000  0.61485000  1.0 -0.5305483977
O  O2  1  0.58168000  0.60068000  0.61485000  1.0 -0.5305483977
O  O3  1  0.39932000  0.58168000  0.61485000  1.0 -0.5305483977
O  O4  1  0.60068000  0.41832000  0.61485000  1.0 -0.5305483977
O  O5  1  0.41832000  0.60068000  0.38515000  1.0 -0.5305483977
O  O6  1  0.58168000  0.39932000  0.38515000  1.0 -0.5305483977
O  O7  1  0.39932000  0.41832000  0.38515000  1.0 -0.5305483977
O  O8  1  0.60068000  0.58168000  0.38515000  1.0 -0.5305483977
O  O9  1  0.08168000  0.10068000  0.38515000  1.0 -0.5305483977
O  O10  1  0.91832000  0.89932000  0.38515000  1.0 -0.5305483977
O  O11  1  0.10068000  0.91832000  0.38515000  1.0 -0.5305483977
O  O12  1  0.89932000  0.08168000  0.38515000  1.0 -0.5305483977
O  O13  1  0.08168000  0.89932000  0.61485000  1.0 -0.5305483977
O  O14  1  0.91832000  0.10068000  0.61485000  1.0 -0.5305483977
O  O15  1  0.10068000  0.08168000  0.61485000  1.0 -0.5305483977
O  O16  1  0.89932000  0.91832000  0.61485000  1.0 -0.5305483977
