# DDEC6 charges by PACMAN v1.1 (https://github.com/mtap-research/PACMAN-charge/)
data_2019[Zn][cag]3[FSR]2
_chemical_formula_sum              "Zn16 H96 C96 N64"
_cell_length_a       15.2394
_cell_length_b       15.2837
_cell_length_c       18.2695
_cell_angle_alpha    90
_cell_angle_beta     90
_cell_angle_gamma    90

_symmetry_space_group_name_H-M    "P 1"
_symmetry_Int_Tables_number       1

loop_
  _symmetry_equiv_pos_as_xyz
  'x, y, z'

loop_
  _atom_site_type_symbol
  _atom_site_label
  _atom_site_symmetry_multiplicity
  _atom_site_fract_x
  _atom_site_fract_y
  _atom_site_fract_z
  _atom_site_occupancy
  _atom_site_charge
Zn  Zn1       1.0  0.85251  0.01838  0.81154  1.0000 0.621264316
Zn  Zn2       1.0  0.14749  0.98161  0.18846  1.0000 0.621264316
Zn  Zn3       1.0  0.64749  0.51838  0.18846  1.0000 0.621264316
Zn  Zn4       1.0  0.35251  0.48161  0.81154  1.0000 0.621264316
Zn  Zn5       1.0  0.14749  0.48161  0.31154  1.0000 0.621264316
Zn  Zn6       1.0  0.85251  0.51838  0.68846  1.0000 0.621264316
Zn  Zn7       1.0  0.35251  0.98161  0.68846  1.0000 0.621264316
Zn  Zn8       1.0  0.64749  0.01838  0.31154  1.0000 0.621264316
Zn  Zn9       1.0  0.85186  0.71212  0.40588  1.0000 0.621264316
Zn  Zn10      1.0  0.14814  0.28787  0.59412  1.0000 0.621264316
Zn  Zn11      1.0  0.64814  0.21212  0.59412  1.0000 0.621264316
Zn  Zn12      1.0  0.35186  0.78787  0.40588  1.0000 0.621264316
Zn  Zn13      1.0  0.14814  0.78787  0.90588  1.0000 0.621264316
Zn  Zn14      1.0  0.85186  0.21212  0.09412  1.0000 0.621264316
Zn  Zn15      1.0  0.35186  0.28787  0.09412  1.0000 0.621264316
Zn  Zn16      1.0  0.64814  0.71212  0.90588  1.0000 0.621264316
H   H1        1.0  0.96009  0.10683  0.67446  1.0000 0.1016203801
H   H2        1.0  0.03991  0.89316  0.32554  1.0000 0.1016203801
H   H3        1.0  0.53991  0.60683  0.32554  1.0000 0.1016203801
H   H4        1.0  0.46009  0.39316  0.67446  1.0000 0.1016203801
H   H5        1.0  0.03991  0.39316  0.17446  1.0000 0.1016203801
H   H6        1.0  0.96009  0.60683  0.82554  1.0000 0.1016203801
H   H7        1.0  0.46009  0.89316  0.82554  1.0000 0.1016203801
H   H8        1.0  0.53991  0.10683  0.17446  1.0000 0.1016203801
H   H9        1.0  0.98837  0.92444  0.92009  1.0000 0.0794134712
H   H10       1.0  0.01163  0.07556  0.07991  1.0000 0.0794134712
H   H11       1.0  0.51163  0.42443  0.07991  1.0000 0.0794134712
H   H12       1.0  0.48837  0.57556  0.92009  1.0000 0.0794134712
H   H13       1.0  0.01163  0.57556  0.42009  1.0000 0.0794134712
H   H14       1.0  0.98837  0.42443  0.57991  1.0000 0.0794134712
H   H15       1.0  0.48837  0.07556  0.57991  1.0000 0.0794134712
H   H16       1.0  0.51163  0.92444  0.42009  1.0000 0.0794134712
H   H17       1.0  0.94926  0.89507  0.69332  1.0000 0.1016203801
H   H18       1.0  0.05074  0.10492  0.30668  1.0000 0.1016203801
H   H19       1.0  0.55074  0.39508  0.30668  1.0000 0.1016203801
H   H20       1.0  0.44926  0.60493  0.69332  1.0000 0.1016203801
H   H21       1.0  0.05074  0.60493  0.19332  1.0000 0.1016203801
H   H22       1.0  0.94926  0.39508  0.80668  1.0000 0.1016203801
H   H23       1.0  0.44926  0.10492  0.80668  1.0000 0.1016203801
H   H24       1.0  0.55074  0.89507  0.19332  1.0000 0.1016203801
H   H25       1.0  0.93709  0.40927  0.06570  1.0000 0.1016203801
H   H26       1.0  0.06291  0.59072  0.93430  1.0000 0.1016203801
H   H27       1.0  0.56291  0.90928  0.93430  1.0000 0.1016203801
H   H28       1.0  0.43709  0.09072  0.06570  1.0000 0.1016203801
H   H29       1.0  0.06291  0.09072  0.56570  1.0000 0.1016203801
H   H30       1.0  0.93709  0.90928  0.43430  1.0000 0.1016203801
H   H31       1.0  0.43709  0.59072  0.43430  1.0000 0.1016203801
H   H32       1.0  0.56291  0.40927  0.56570  1.0000 0.1016203801
H   H33       1.0  0.57860  0.80963  0.05331  1.0000 0.1016203801
H   H34       1.0  0.42140  0.19037  0.94669  1.0000 0.1016203801
H   H35       1.0  0.92140  0.30963  0.94669  1.0000 0.1016203801
H   H36       1.0  0.07860  0.69037  0.05331  1.0000 0.1016203801
H   H37       1.0  0.42140  0.69037  0.55331  1.0000 0.1016203801
H   H38       1.0  0.57860  0.30963  0.44669  1.0000 0.1016203801
H   H39       1.0  0.07860  0.19037  0.44669  1.0000 0.1016203801
H   H40       1.0  0.92140  0.80963  0.55331  1.0000 0.1016203801
H   H41       1.0  0.92339  0.21719  0.81569  1.0000 0.1016203801
H   H42       1.0  0.07661  0.78280  0.18431  1.0000 0.1016203801
H   H43       1.0  0.57661  0.71719  0.18431  1.0000 0.1016203801
H   H44       1.0  0.42339  0.28280  0.81569  1.0000 0.1016203801
H   H45       1.0  0.07661  0.28280  0.31569  1.0000 0.1016203801
H   H46       1.0  0.92339  0.71719  0.68431  1.0000 0.1016203801
H   H47       1.0  0.42339  0.78280  0.68431  1.0000 0.1016203801
H   H48       1.0  0.57661  0.21719  0.31569  1.0000 0.1016203801
H   H49       1.0  0.84090  0.55312  0.11205  1.0000 0.1016203801
H   H50       1.0  0.15910  0.44688  0.88795  1.0000 0.1016203801
H   H51       1.0  0.65910  0.05312  0.88795  1.0000 0.1016203801
H   H52       1.0  0.34090  0.94688  0.11205  1.0000 0.1016203801
H   H53       1.0  0.15910  0.94688  0.61205  1.0000 0.1016203801
H   H54       1.0  0.84090  0.05312  0.38795  1.0000 0.1016203801
H   H55       1.0  0.34090  0.44688  0.38795  1.0000 0.1016203801
H   H56       1.0  0.65910  0.55312  0.61205  1.0000 0.1016203801
H   H57       1.0  0.80953  0.57600  0.28170  1.0000 0.0794134712
H   H58       1.0  0.19047  0.42400  0.71830  1.0000 0.0794134712
H   H59       1.0  0.69047  0.07600  0.71830  1.0000 0.0794134712
H   H60       1.0  0.30953  0.92399  0.28170  1.0000 0.0794134712
H   H61       1.0  0.19047  0.92399  0.78170  1.0000 0.0794134712
H   H62       1.0  0.80953  0.07600  0.21830  1.0000 0.0794134712
H   H63       1.0  0.30953  0.42400  0.21830  1.0000 0.0794134712
H   H64       1.0  0.69047  0.57600  0.78170  1.0000 0.0794134712
H   H65       1.0  0.92243  0.22225  0.26018  1.0000 0.1090862675
H   H66       1.0  0.07757  0.77774  0.73982  1.0000 0.1090862675
H   H67       1.0  0.57757  0.72225  0.73982  1.0000 0.1090862675
H   H68       1.0  0.42243  0.27775  0.26018  1.0000 0.1090862675
H   H69       1.0  0.07757  0.27775  0.76018  1.0000 0.1090862675
H   H70       1.0  0.92243  0.72225  0.23982  1.0000 0.1090862675
H   H71       1.0  0.42243  0.77774  0.23982  1.0000 0.1090862675
H   H72       1.0  0.57757  0.22225  0.76018  1.0000 0.1090862675
H   H73       1.0  0.32854  0.44609  0.98373  1.0000 0.0794134712
H   H74       1.0  0.67146  0.55390  0.01627  1.0000 0.0794134712
H   H75       1.0  0.17146  0.94610  0.01627  1.0000 0.0794134712
H   H76       1.0  0.82854  0.05391  0.98373  1.0000 0.0794134712
H   H77       1.0  0.67146  0.05391  0.48373  1.0000 0.0794134712
H   H78       1.0  0.32854  0.94610  0.51627  1.0000 0.0794134712
H   H79       1.0  0.82854  0.55390  0.51627  1.0000 0.0794134712
H   H80       1.0  0.17146  0.44609  0.48373  1.0000 0.0794134712
H   H81       1.0  0.20632  0.67737  0.33009  1.0000 0.0794134712
H   H82       1.0  0.79368  0.32262  0.66991  1.0000 0.0794134712
H   H83       1.0  0.29368  0.17738  0.66991  1.0000 0.0794134712
H   H84       1.0  0.70632  0.82263  0.33009  1.0000 0.0794134712
H   H85       1.0  0.79368  0.82263  0.83009  1.0000 0.0794134712
H   H86       1.0  0.20632  0.17738  0.16991  1.0000 0.0794134712
H   H87       1.0  0.70632  0.32262  0.16991  1.0000 0.0794134712
H   H88       1.0  0.29368  0.67737  0.83009  1.0000 0.0794134712
H   H89       1.0  0.36370  0.80092  0.92892  1.0000 0.1016203801
H   H90       1.0  0.63630  0.19907  0.07108  1.0000 0.1016203801
H   H91       1.0  0.13630  0.30092  0.07108  1.0000 0.1016203801
H   H92       1.0  0.86370  0.69908  0.92892  1.0000 0.1016203801
H   H93       1.0  0.63630  0.69908  0.42892  1.0000 0.1016203801
H   H94       1.0  0.36370  0.30092  0.57108  1.0000 0.1016203801
H   H95       1.0  0.86370  0.19907  0.57108  1.0000 0.1016203801
H   H96       1.0  0.13630  0.80092  0.42892  1.0000 0.1016203801
C   C1        1.0  0.24349  0.13409  0.64822  1.0000 0.1294589321
C   C2        1.0  0.75651  0.86591  0.35178  1.0000 0.1294589321
C   C3        1.0  0.25651  0.63409  0.35178  1.0000 0.1294589321
C   C4        1.0  0.74349  0.36591  0.64822  1.0000 0.1294589321
C   C5        1.0  0.75651  0.36591  0.14822  1.0000 0.1294589321
C   C6        1.0  0.24349  0.63409  0.85178  1.0000 0.1294589321
C   C7        1.0  0.74349  0.86591  0.85178  1.0000 0.1294589321
C   C8        1.0  0.25651  0.13409  0.14822  1.0000 0.1294589321
C   C9        1.0  0.62512  0.91225  0.90553  1.0000 -0.0687957786
C   C10       1.0  0.37488  0.08775  0.09447  1.0000 -0.0687957786
C   C11       1.0  0.87488  0.41225  0.09447  1.0000 -0.0687957786
C   C12       1.0  0.12512  0.58774  0.90553  1.0000 -0.0687957786
C   C13       1.0  0.37488  0.58774  0.40553  1.0000 -0.0687957786
C   C14       1.0  0.62512  0.41225  0.59447  1.0000 -0.0687957786
C   C15       1.0  0.12512  0.08775  0.59447  1.0000 -0.0687957786
C   C16       1.0  0.87488  0.91225  0.40553  1.0000 -0.0687957786
C   C17       1.0  0.67273  0.98373  0.88245  1.0000 -0.0610752577
C   C18       1.0  0.32727  0.01627  0.11755  1.0000 -0.0610752577
C   C19       1.0  0.82727  0.48374  0.11755  1.0000 -0.0610752577
C   C20       1.0  0.17273  0.51626  0.88245  1.0000 -0.0610752577
C   C21       1.0  0.32727  0.51626  0.38245  1.0000 -0.0610752577
C   C22       1.0  0.67273  0.48374  0.61755  1.0000 -0.0610752577
C   C23       1.0  0.17273  0.01627  0.61755  1.0000 -0.0610752577
C   C24       1.0  0.82727  0.98373  0.38245  1.0000 -0.0610752577
C   C25       1.0  0.53969  0.67458  0.77047  1.0000 -0.0687957786
C   C26       1.0  0.46031  0.32543  0.22953  1.0000 -0.0687957786
C   C27       1.0  0.96031  0.17457  0.22953  1.0000 -0.0687957786
C   C28       1.0  0.03969  0.82542  0.77047  1.0000 -0.0687957786
C   C29       1.0  0.46031  0.82542  0.27047  1.0000 -0.0687957786
C   C30       1.0  0.53969  0.17457  0.72953  1.0000 -0.0687957786
C   C31       1.0  0.03969  0.32543  0.72953  1.0000 -0.0687957786
C   C32       1.0  0.96031  0.67458  0.27047  1.0000 -0.0687957786
C   C33       1.0  0.84172  0.65929  0.88327  1.0000 -0.0687957786
C   C34       1.0  0.15828  0.34070  0.11673  1.0000 -0.0687957786
C   C35       1.0  0.65828  0.15929  0.11673  1.0000 -0.0687957786
C   C36       1.0  0.34172  0.84071  0.88327  1.0000 -0.0687957786
C   C37       1.0  0.15828  0.84071  0.38327  1.0000 -0.0687957786
C   C38       1.0  0.84172  0.15929  0.61673  1.0000 -0.0687957786
C   C39       1.0  0.34172  0.34070  0.61673  1.0000 -0.0687957786
C   C40       1.0  0.65828  0.65929  0.38327  1.0000 -0.0687957786
C   C41       1.0  0.75091  0.59649  0.80817  1.0000 0.1294589321
C   C42       1.0  0.24909  0.40351  0.19183  1.0000 0.1294589321
C   C43       1.0  0.74909  0.09649  0.19183  1.0000 0.1294589321
C   C44       1.0  0.25091  0.90351  0.80817  1.0000 0.1294589321
C   C45       1.0  0.24909  0.90351  0.30817  1.0000 0.1294589321
C   C46       1.0  0.75091  0.09649  0.69183  1.0000 0.1294589321
C   C47       1.0  0.25091  0.40351  0.69183  1.0000 0.1294589321
C   C48       1.0  0.74909  0.59649  0.30817  1.0000 0.1294589321
C   C49       1.0  0.85575  0.11062  0.95597  1.0000 0.1294589321
C   C50       1.0  0.14425  0.88938  0.04403  1.0000 0.1294589321
C   C51       1.0  0.64425  0.61062  0.04403  1.0000 0.1294589321
C   C52       1.0  0.35575  0.38938  0.95597  1.0000 0.1294589321
C   C53       1.0  0.14425  0.38938  0.45597  1.0000 0.1294589321
C   C54       1.0  0.85575  0.61062  0.54403  1.0000 0.1294589321
C   C55       1.0  0.35575  0.88938  0.54403  1.0000 0.1294589321
C   C56       1.0  0.64425  0.11062  0.45597  1.0000 0.1294589321
C   C57       1.0  0.88963  0.11366  0.66806  1.0000 -0.0610752577
C   C58       1.0  0.11037  0.88633  0.33194  1.0000 -0.0610752577
C   C59       1.0  0.61037  0.61367  0.33194  1.0000 -0.0610752577
C   C60       1.0  0.38963  0.38633  0.66806  1.0000 -0.0610752577
C   C61       1.0  0.11037  0.38633  0.16806  1.0000 -0.0610752577
C   C62       1.0  0.88963  0.61367  0.83194  1.0000 -0.0610752577
C   C63       1.0  0.38963  0.88633  0.83194  1.0000 -0.0610752577
C   C64       1.0  0.61037  0.11366  0.16806  1.0000 -0.0610752577
C   C65       1.0  0.99509  0.90025  0.86445  1.0000 0.1294589321
C   C66       1.0  0.00491  0.09975  0.13555  1.0000 0.1294589321
C   C67       1.0  0.50491  0.40026  0.13555  1.0000 0.1294589321
C   C68       1.0  0.49509  0.59974  0.86445  1.0000 0.1294589321
C   C69       1.0  0.00491  0.59974  0.36445  1.0000 0.1294589321
C   C70       1.0  0.99509  0.40026  0.63555  1.0000 0.1294589321
C   C71       1.0  0.49509  0.09975  0.63555  1.0000 0.1294589321
C   C72       1.0  0.50491  0.90025  0.36445  1.0000 0.1294589321
C   C73       1.0  0.97643  0.88355  0.74736  1.0000 -0.0610752577
C   C74       1.0  0.02357  0.11645  0.25264  1.0000 -0.0610752577
C   C75       1.0  0.52357  0.38355  0.25264  1.0000 -0.0610752577
C   C76       1.0  0.47643  0.61645  0.74736  1.0000 -0.0610752577
C   C77       1.0  0.02357  0.61645  0.24736  1.0000 -0.0610752577
C   C78       1.0  0.97643  0.38355  0.75264  1.0000 -0.0610752577
C   C79       1.0  0.47643  0.11645  0.75264  1.0000 -0.0610752577
C   C80       1.0  0.52357  0.88355  0.24736  1.0000 -0.0610752577
C   C81       1.0  0.59637  0.74226  0.06478  1.0000 -0.0687957786
C   C82       1.0  0.40363  0.25773  0.93522  1.0000 -0.0687957786
C   C83       1.0  0.90363  0.24226  0.93522  1.0000 -0.0687957786
C   C84       1.0  0.09637  0.75773  0.06478  1.0000 -0.0687957786
C   C85       1.0  0.40363  0.75773  0.56478  1.0000 -0.0687957786
C   C86       1.0  0.59637  0.24226  0.43522  1.0000 -0.0687957786
C   C87       1.0  0.09637  0.25773  0.43522  1.0000 -0.0687957786
C   C88       1.0  0.90363  0.74226  0.56478  1.0000 -0.0687957786
C   C89       1.0  0.90466  0.19647  0.87031  1.0000 -0.0610752577
C   C90       1.0  0.09534  0.80352  0.12969  1.0000 -0.0610752577
C   C91       1.0  0.59534  0.69647  0.12969  1.0000 -0.0610752577
C   C92       1.0  0.40466  0.30352  0.87031  1.0000 -0.0610752577
C   C93       1.0  0.09534  0.30352  0.37031  1.0000 -0.0610752577
C   C94       1.0  0.90466  0.69647  0.62969  1.0000 -0.0610752577
C   C95       1.0  0.40466  0.80352  0.62969  1.0000 -0.0610752577
C   C96       1.0  0.59534  0.19647  0.37031  1.0000 -0.0610752577
N   N1        1.0  0.83135  0.07390  0.71543  1.0000 -0.2947612667
N   N2        1.0  0.16865  0.92609  0.28457  1.0000 -0.2989358456
N   N3        1.0  0.66865  0.57390  0.28457  1.0000 -0.2989358456
N   N4        1.0  0.33135  0.42610  0.71543  1.0000 -0.2989358456
N   N5        1.0  0.16865  0.42610  0.21543  1.0000 -0.2989358456
N   N6        1.0  0.83135  0.57390  0.78457  1.0000 -0.2989358456
N   N7        1.0  0.33135  0.92609  0.78457  1.0000 -0.2989358456
N   N8        1.0  0.66865  0.07390  0.21543  1.0000 -0.2947612667
N   N9        1.0  0.37429  0.88695  0.61597  1.0000 -0.2989358456
N   N10       1.0  0.62571  0.11305  0.38403  1.0000 -0.2989358456
N   N11       1.0  0.12571  0.38695  0.38403  1.0000 -0.2989358456
N   N12       1.0  0.87429  0.61304  0.61597  1.0000 -0.2989358456
N   N13       1.0  0.62571  0.61304  0.11597  1.0000 -0.2989358456
N   N14       1.0  0.37429  0.38695  0.88403  1.0000 -0.2989358456
N   N15       1.0  0.87429  0.11305  0.88403  1.0000 -0.2989358456
N   N16       1.0  0.12571  0.88695  0.11597  1.0000 -0.2989358456
N   N17       1.0  0.44848  0.06925  0.69265  1.0000 -0.2947612667
N   N18       1.0  0.55152  0.93074  0.30735  1.0000 -0.2947612667
N   N19       1.0  0.05152  0.56925  0.30735  1.0000 -0.2989358456
N   N20       1.0  0.94848  0.43074  0.69265  1.0000 -0.2947612667
N   N21       1.0  0.55152  0.43074  0.19265  1.0000 -0.2947612667
N   N22       1.0  0.44848  0.56925  0.80735  1.0000 -0.2989358456
N   N23       1.0  0.94848  0.93074  0.80735  1.0000 -0.2947612667
N   N24       1.0  0.05152  0.06925  0.19265  1.0000 -0.2947612667
N   N25       1.0  0.82950  0.33770  0.11417  1.0000 -0.2947612667
N   N26       1.0  0.17050  0.66231  0.88583  1.0000 -0.2947612667
N   N27       1.0  0.67050  0.83769  0.88583  1.0000 -0.2947612667
N   N28       1.0  0.32950  0.16231  0.11417  1.0000 -0.2947612667
N   N29       1.0  0.17050  0.16231  0.61417  1.0000 -0.2947612667
N   N30       1.0  0.82950  0.83769  0.38583  1.0000 -0.2947612667
N   N31       1.0  0.32950  0.66231  0.38583  1.0000 -0.2947612667
N   N32       1.0  0.67050  0.33770  0.61417  1.0000 -0.2947612667
N   N33       1.0  0.75222  0.45364  0.15149  1.0000 -0.2989358456
N   N34       1.0  0.24778  0.54636  0.84851  1.0000 -0.2989358456
N   N35       1.0  0.74778  0.95364  0.84851  1.0000 -0.2989358456
N   N36       1.0  0.25222  0.04635  0.15149  1.0000 -0.2989358456
N   N37       1.0  0.24778  0.04635  0.65149  1.0000 -0.2989358456
N   N38       1.0  0.75222  0.95364  0.34851  1.0000 -0.2989358456
N   N39       1.0  0.25222  0.54636  0.34851  1.0000 -0.2989358456
N   N40       1.0  0.74778  0.45364  0.65149  1.0000 -0.2989358456
N   N41       1.0  0.87251  0.18735  0.98932  1.0000 -0.2947612667
N   N42       1.0  0.12749  0.81264  0.01068  1.0000 -0.2947612667
N   N43       1.0  0.62749  0.68736  0.01068  1.0000 -0.2947612667
N   N44       1.0  0.37251  0.31265  0.98932  1.0000 -0.2947612667
N   N45       1.0  0.12749  0.31265  0.48932  1.0000 -0.2947612667
N   N46       1.0  0.87251  0.68736  0.51068  1.0000 -0.2947612667
N   N47       1.0  0.37251  0.81264  0.51068  1.0000 -0.2947612667
N   N48       1.0  0.62749  0.18735  0.48932  1.0000 -0.2947612667
N   N49       1.0  0.94887  0.16353  0.15515  1.0000 -0.2989358456
N   N50       1.0  0.05113  0.83647  0.84485  1.0000 -0.2989358456
N   N51       1.0  0.55113  0.66352  0.84485  1.0000 -0.2989358456
N   N52       1.0  0.44887  0.33648  0.15515  1.0000 -0.2989358456
N   N53       1.0  0.05113  0.33648  0.65515  1.0000 -0.2989358456
N   N54       1.0  0.94887  0.66352  0.34485  1.0000 -0.2989358456
N   N55       1.0  0.44887  0.83647  0.34485  1.0000 -0.2989358456
N   N56       1.0  0.55113  0.16353  0.65515  1.0000 -0.2989358456
N   N57       1.0  0.74632  0.14818  0.13228  1.0000 -0.2989358456
N   N58       1.0  0.25368  0.85181  0.86772  1.0000 -0.2989358456
N   N59       1.0  0.75368  0.64819  0.86772  1.0000 -0.2989358456
N   N60       1.0  0.24632  0.35181  0.13228  1.0000 -0.2989358456
N   N61       1.0  0.25368  0.35181  0.63228  1.0000 -0.2989358456
N   N62       1.0  0.74632  0.64819  0.36772  1.0000 -0.2989358456
N   N63       1.0  0.24632  0.85181  0.36772  1.0000 -0.2989358456
N   N64       1.0  0.75368  0.14818  0.63228  1.0000 -0.2989358456
