# DDEC6 charges by PACMAN v1.1 (https://github.com/mtap-research/PACMAN-charge/)
data_cm0c01737_si_005_143_FSR_pacman
_symmetry_space_group_name_H-M   'P 1'
_cell_length_a   12.05790000
_cell_length_b   12.05790000
_cell_length_c   5.20240000
_cell_angle_alpha   90.00000000
_cell_angle_beta   90.00000000
_cell_angle_gamma   90.00000000
_symmetry_Int_Tables_number   1
_chemical_formula_structural   ZnH2(CN4)2
_chemical_formula_sum   'Zn4 H8 C8 N32'
_cell_volume   756.39229562
_cell_formula_units_Z   4
loop_
 _symmetry_equiv_pos_site_id
 _symmetry_equiv_pos_as_xyz
  1  'x, y, z'
loop_
 _atom_site_type_symbol
 _atom_site_label
 _atom_site_symmetry_multiplicity
 _atom_site_fract_x
 _atom_site_fract_y
 _atom_site_fract_z
 _atom_site_occupancy
 _atom_site_charge
Zn  Zn1  1  0.75000000  0.75000000  0.00000000  1.0 0.6023715867
Zn  Zn2  1  0.25000000  0.25000000  0.00000000  1.0 0.6023715867
Zn  Zn3  1  0.75000000  0.25000000  0.00000000  1.0 0.6023715867
Zn  Zn4  1  0.25000000  0.75000000  0.00000000  1.0 0.6023715867
H  H1  1  0.00000000  0.79157000  0.79445000  1.0 0.0857868624
H  H2  1  0.00000000  0.20843000  0.79445000  1.0 0.0857868624
H  H3  1  0.50000000  0.29157000  0.20555000  1.0 0.0857868624
H  H4  1  0.50000000  0.70843000  0.20555000  1.0 0.0857868624
H  H5  1  0.20843000  0.00000000  0.20555000  1.0 0.0857868624
H  H6  1  0.79157000  0.00000000  0.20555000  1.0 0.0857868624
H  H7  1  0.70843000  0.50000000  0.79445000  1.0 0.0857868624
H  H8  1  0.29157000  0.50000000  0.79445000  1.0 0.0857868624
C  C1  1  0.00000000  0.77606000  0.99976000  1.0 0.1306358112
C  C2  1  0.00000000  0.22394000  0.99976000  1.0 0.1306358112
C  C3  1  0.50000000  0.27606000  0.00024000  1.0 0.1306358112
C  C4  1  0.50000000  0.72394000  0.00024000  1.0 0.1306358112
C  C5  1  0.22394000  0.00000000  0.00024000  1.0 0.1306358112
C  C6  1  0.77606000  0.00000000  0.00024000  1.0 0.1306358112
C  C7  1  0.72394000  0.50000000  0.99976000  1.0 0.1306358112
C  C8  1  0.27606000  0.50000000  0.99976000  1.0 0.1306358112
N  N1  1  0.90949000  0.76364000  0.14460000  1.0 -0.2019309736
N  N2  1  0.09051000  0.23636000  0.14460000  1.0 -0.2019309736
N  N3  1  0.59051000  0.26364000  0.85540000  1.0 -0.2019309736
N  N4  1  0.40949000  0.73636000  0.85540000  1.0 -0.2019309736
N  N5  1  0.23636000  0.09051000  0.85540000  1.0 -0.2019309736
N  N6  1  0.76364000  0.90949000  0.85540000  1.0 -0.2019309736
N  N7  1  0.73636000  0.40949000  0.14460000  1.0 -0.2019309736
N  N8  1  0.26364000  0.59051000  0.14460000  1.0 -0.2019309736
N  N9  1  0.59051000  0.73636000  0.85540000  1.0 -0.2019309736
N  N10  1  0.40949000  0.26364000  0.85540000  1.0 -0.2019309736
N  N11  1  0.90949000  0.23636000  0.14460000  1.0 -0.2019309736
N  N12  1  0.09051000  0.76364000  0.14460000  1.0 -0.2019309736
N  N13  1  0.26364000  0.40949000  0.14460000  1.0 -0.2019309736
N  N14  1  0.73636000  0.59051000  0.14460000  1.0 -0.2019309736
N  N15  1  0.76364000  0.09051000  0.85540000  1.0 -0.2019309736
N  N16  1  0.23636000  0.90949000  0.85540000  1.0 -0.2019309736
N  N17  1  0.94600000  0.74374000  0.38710000  1.0 -0.0568732599
N  N18  1  0.05400000  0.25626000  0.38710000  1.0 -0.0568732599
N  N19  1  0.55400000  0.24374000  0.61290000  1.0 -0.0568732599
N  N20  1  0.44600000  0.75626000  0.61290000  1.0 -0.0568732599
N  N21  1  0.25626000  0.05400000  0.61290000  1.0 -0.0568732599
N  N22  1  0.74374000  0.94600000  0.61290000  1.0 -0.0568732599
N  N23  1  0.75626000  0.44600000  0.38710000  1.0 -0.0568732599
N  N24  1  0.24374000  0.55400000  0.38710000  1.0 -0.0568732599
N  N25  1  0.55400000  0.75626000  0.61290000  1.0 -0.0568732599
N  N26  1  0.44600000  0.24374000  0.61290000  1.0 -0.0568732599
N  N27  1  0.94600000  0.25626000  0.38710000  1.0 -0.0568732599
N  N28  1  0.05400000  0.74374000  0.38710000  1.0 -0.0568732599
N  N29  1  0.24374000  0.44600000  0.38710000  1.0 -0.0568732599
N  N30  1  0.75626000  0.55400000  0.38710000  1.0 -0.0568732599
N  N31  1  0.74374000  0.05400000  0.61290000  1.0 -0.0568732599
N  N32  1  0.25626000  0.94600000  0.61290000  1.0 -0.0568732599
