# DDEC6 charges by PACMAN v1.1 (https://github.com/mtap-research/PACMAN-charge/)
data_c9ra08940c2_FSR_pacman
_symmetry_space_group_name_H-M   'P 1'
_cell_length_a   12.71700000
_cell_length_b   16.73000000
_cell_length_c   27.42700000
_cell_angle_alpha   90.00000000
_cell_angle_beta   90.00000000
_cell_angle_gamma   90.00000000
_symmetry_Int_Tables_number   1
_chemical_formula_structural   Zn2H13C26N6O11
_chemical_formula_sum   'Zn8 H52 C104 N24 O44'
_cell_volume   5835.24263007
_cell_formula_units_Z   4
loop_
 _symmetry_equiv_pos_site_id
 _symmetry_equiv_pos_as_xyz
  1  'x, y, z'
loop_
 _atom_site_type_symbol
 _atom_site_label
 _atom_site_symmetry_multiplicity
 _atom_site_fract_x
 _atom_site_fract_y
 _atom_site_fract_z
 _atom_site_occupancy
 _atom_site_charge
Zn  Zn1  1  0.25716000  0.42411000  0.88484000  1.0 1.0390380675
Zn  Zn2  1  0.07003000  0.56333000  0.90006000  1.0 0.960294267
Zn  Zn3  1  0.24284000  0.57589000  0.38484000  1.0 1.0390380675
Zn  Zn4  1  0.42997000  0.43667000  0.40006000  1.0 0.960294267
Zn  Zn5  1  0.74284000  0.92411000  0.61516000  1.0 1.0390380675
Zn  Zn6  1  0.92997000  0.06333000  0.59994000  1.0 0.960294267
Zn  Zn7  1  0.75716000  0.07589000  0.11516000  1.0 1.0390380675
Zn  Zn8  1  0.57003000  0.93667000  0.09994000  1.0 0.960294267
H  H1  1  0.86860000  0.62240000  0.98390000  1.0 0.3110350536
H  H2  1  0.77570000  0.37890000  0.09990000  1.0 0.3155549223
H  H3  1  0.60370000  0.66940000  0.13160000  1.0 0.3110350536
H  H4  1  0.93430000  0.45310000  0.00800000  1.0 0.1408235531
H  H5  1  0.07310000  0.24420000  0.97550000  1.0 0.1408235531
H  H6  1  0.97750000  0.18490000  0.03770000  1.0 0.1408235531
H  H7  1  0.98330000  0.86050000  0.93290000  1.0 0.1157010624
H  H8  1  0.90950000  0.95270000  0.98660000  1.0 0.1408235531
H  H9  1  0.76350000  0.77190000  0.05670000  1.0 0.1452609653
H  H10  1  0.66000000  0.49180000  0.19260000  1.0 0.1408235531
H  H11  1  0.46150000  0.67760000  0.17980000  1.0 0.1408235531
H  H12  1  0.57670000  0.45430000  0.26360000  1.0 0.1348835731
H  H13  1  0.37880000  0.63890000  0.25230000  1.0 0.1408235531
H  H14  1  0.63140000  0.37760000  0.48390000  1.0 0.3110350536
H  H15  1  0.72430000  0.62110000  0.59990000  1.0 0.3155549223
H  H16  1  0.89630000  0.33060000  0.63160000  1.0 0.3110350536
H  H17  1  0.56570000  0.54690000  0.50800000  1.0 0.1408235531
H  H18  1  0.42690000  0.75580000  0.47550000  1.0 0.1408235531
H  H19  1  0.52250000  0.81510000  0.53770000  1.0 0.1408235531
H  H20  1  0.51670000  0.13950000  0.43290000  1.0 0.1157010624
H  H21  1  0.59050000  0.04730000  0.48660000  1.0 0.1408235531
H  H22  1  0.73650000  0.22810000  0.55670000  1.0 0.1452609653
H  H23  1  0.84000000  0.50820000  0.69260000  1.0 0.1408235531
H  H24  1  0.03850000  0.32240000  0.67980000  1.0 0.1408235531
H  H25  1  0.92330000  0.54570000  0.76360000  1.0 0.1348835731
H  H26  1  0.12120000  0.36110000  0.75230000  1.0 0.1408235531
H  H27  1  0.13140000  0.12240000  0.51610000  1.0 0.3110350536
H  H28  1  0.22430000  0.87890000  0.40010000  1.0 0.3155549223
H  H29  1  0.39630000  0.16940000  0.36840000  1.0 0.3110350536
H  H30  1  0.06570000  0.95310000  0.49200000  1.0 0.1408235531
H  H31  1  0.92690000  0.74420000  0.52450000  1.0 0.1408235531
H  H32  1  0.02250000  0.68490000  0.46230000  1.0 0.1408235531
H  H33  1  0.01670000  0.36050000  0.56710000  1.0 0.1157010624
H  H34  1  0.09050000  0.45270000  0.51340000  1.0 0.1408235531
H  H35  1  0.23650000  0.27190000  0.44330000  1.0 0.1452609653
H  H36  1  0.34000000  0.99180000  0.30740000  1.0 0.1408235531
H  H37  1  0.53850000  0.17760000  0.32020000  1.0 0.1408235531
H  H38  1  0.42330000  0.95430000  0.23640000  1.0 0.1348835731
H  H39  1  0.62120000  0.13890000  0.24770000  1.0 0.1408235531
H  H40  1  0.36860000  0.87760000  0.01610000  1.0 0.3110350536
H  H41  1  0.27570000  0.12110000  0.90010000  1.0 0.3155549223
H  H42  1  0.10370000  0.83060000  0.86840000  1.0 0.3110350536
H  H43  1  0.43430000  0.04690000  0.99200000  1.0 0.1408235531
H  H44  1  0.57310000  0.25580000  0.02450000  1.0 0.1408235531
H  H45  1  0.47750000  0.31510000  0.96230000  1.0 0.1408235531
H  H46  1  0.48330000  0.63950000  0.06710000  1.0 0.1157010624
H  H47  1  0.40950000  0.54730000  0.01340000  1.0 0.1408235531
H  H48  1  0.26350000  0.72810000  0.94330000  1.0 0.1408235531
H  H49  1  0.16000000  0.00820000  0.80740000  1.0 0.1408235531
H  H50  1  0.96150000  0.82240000  0.82020000  1.0 0.1408235531
H  H51  1  0.07670000  0.04570000  0.73640000  1.0 0.1348835731
H  H52  1  0.87880000  0.86110000  0.74770000  1.0 0.1408235531
C  C1  1  0.79450000  0.60790000  0.04320000  1.0 0.5305071751
C  C2  1  0.69050000  0.58700000  0.10670000  1.0 0.5242110545
C  C3  1  0.78380000  0.48480000  0.07630000  1.0 0.5305071751
C  C4  1  0.88270000  0.36220000  0.05050000  1.0 0.2138888071
C  C5  1  0.07610000  0.39940000  0.94930000  1.0 0.6178350503
C  C6  1  0.94250000  0.39880000  0.01410000  1.0 -0.1649835354
C  C7  1  0.01450000  0.35460000  0.98670000  1.0 -0.0036930802
C  C8  1  0.02700000  0.27420000  0.99440000  1.0 -0.0994363941
C  C9  1  0.96810000  0.23910000  0.03150000  1.0 -0.0757687783
C  C10  1  0.89630000  0.28090000  0.05970000  1.0 -0.1058389863
C  C11  1  0.83820000  0.23680000  0.09980000  1.0 0.6003837118
C  C12  1  0.85630000  0.73390000  0.00080000  1.0 0.2343518639
C  C13  1  0.92040000  0.76110000  0.96258000  1.0 -0.1225896908
C  C14  1  0.93990000  0.84260000  0.95800000  1.0 -0.0913162792
C  C15  1  0.89590000  0.89840000  0.99020000  1.0 -0.0994363941
C  C16  1  0.83040000  0.87030000  0.02810000  1.0 -0.0036930802
C  C17  1  0.80920000  0.78960000  0.03253000  1.0 -0.1689251404
C  C18  1  0.77960000  0.92700000  0.06179000  1.0 0.5894609148
C  C19  1  0.97460000  0.70830000  0.92682000  1.0 0.5894609148
C  C20  1  0.57010000  0.58860000  0.17954000  1.0 0.2390241379
C  C21  1  0.60400000  0.52180000  0.20450000  1.0 -0.1689251404
C  C22  1  0.48520000  0.63310000  0.19690000  1.0 -0.1860612875
C  C23  1  0.55410000  0.49980000  0.24710000  1.0 -0.0682503155
C  C24  1  0.43570000  0.60980000  0.24050000  1.0 -0.0594510904
C  C25  1  0.47100000  0.54400000  0.26595000  1.0 -0.0416476374
C  C26  1  0.42220000  0.52150000  0.31317000  1.0 0.6003837118
C  C27  1  0.70550000  0.39210000  0.54320000  1.0 0.5305071751
C  C28  1  0.80950000  0.41300000  0.60670000  1.0 0.5242110545
C  C29  1  0.71620000  0.51520000  0.57630000  1.0 0.5305071751
C  C30  1  0.61730000  0.63780000  0.55050000  1.0 0.2138888071
C  C31  1  0.42390000  0.60060000  0.44930000  1.0 0.6178350503
C  C32  1  0.55750000  0.60120000  0.51410000  1.0 -0.1689251404
C  C33  1  0.48550000  0.64540000  0.48670000  1.0 -0.0036930802
C  C34  1  0.47300000  0.72580000  0.49440000  1.0 -0.0994363941
C  C35  1  0.53190000  0.76090000  0.53150000  1.0 -0.0757687783
C  C36  1  0.60370000  0.71910000  0.55970000  1.0 -0.1058389863
C  C37  1  0.66180000  0.76320000  0.59980000  1.0 0.6003837118
C  C38  1  0.64370000  0.26610000  0.50080000  1.0 0.2343518639
C  C39  1  0.57960000  0.23890000  0.46258000  1.0 -0.1225896908
C  C40  1  0.56010000  0.15740000  0.45800000  1.0 -0.0913162792
C  C41  1  0.60410000  0.10160000  0.49020000  1.0 -0.0994363941
C  C42  1  0.66960000  0.12970000  0.52810000  1.0 -0.0036930802
C  C43  1  0.69080000  0.21040000  0.53253000  1.0 -0.1689251404
C  C44  1  0.72040000  0.07300000  0.56179000  1.0 0.5894609148
C  C45  1  0.52540000  0.29170000  0.42682000  1.0 0.5894609148
C  C46  1  0.92990000  0.41140000  0.67954000  1.0 0.2390241379
C  C47  1  0.89600000  0.47820000  0.70450000  1.0 -0.1689251404
C  C48  1  0.01480000  0.36690000  0.69690000  1.0 -0.1860612875
C  C49  1  0.94590000  0.50020000  0.74710000  1.0 -0.0682503155
C  C50  1  0.06430000  0.39020000  0.74050000  1.0 -0.0594510904
C  C51  1  0.02900000  0.45600000  0.76595000  1.0 -0.0416476374
C  C52  1  0.07780000  0.47850000  0.81317000  1.0 0.6003837118
C  C53  1  0.20550000  0.10790000  0.45680000  1.0 0.5305071751
C  C54  1  0.30950000  0.08700000  0.39330000  1.0 0.5242110545
C  C55  1  0.21620000  0.98480000  0.42370000  1.0 0.5305071751
C  C56  1  0.11730000  0.86220000  0.44950000  1.0 0.2138888071
C  C57  1  0.92390000  0.89940000  0.55070000  1.0 0.6178350503
C  C58  1  0.05750000  0.89880000  0.48590000  1.0 -0.1689251404
C  C59  1  0.98550000  0.85460000  0.51330000  1.0 -0.0036930802
C  C60  1  0.97300000  0.77420000  0.50560000  1.0 -0.0994363941
C  C61  1  0.03190000  0.73910000  0.46850000  1.0 -0.0757687783
C  C62  1  0.10370000  0.78090000  0.44030000  1.0 -0.1058389863
C  C63  1  0.16180000  0.73680000  0.40020000  1.0 0.6003837118
C  C64  1  0.14370000  0.23390000  0.49920000  1.0 0.2343518639
C  C65  1  0.07960000  0.26110000  0.53742000  1.0 -0.1225896908
C  C66  1  0.06010000  0.34260000  0.54200000  1.0 -0.0913162792
C  C67  1  0.10410000  0.39840000  0.50980000  1.0 -0.0994363941
C  C68  1  0.16960000  0.37030000  0.47190000  1.0 -0.0036930802
C  C69  1  0.19080000  0.28960000  0.46747000  1.0 -0.1689251404
C  C70  1  0.22040000  0.42700000  0.43821000  1.0 0.5894609148
C  C71  1  0.02540000  0.20830000  0.57318000  1.0 0.5894609148
C  C72  1  0.42990000  0.08860000  0.32046000  1.0 0.2390241379
C  C73  1  0.39600000  0.02180000  0.29550000  1.0 -0.1689251404
C  C74  1  0.51480000  0.13310000  0.30310000  1.0 -0.1860612875
C  C75  1  0.44590000  0.99980000  0.25290000  1.0 -0.0682503155
C  C76  1  0.56430000  0.10980000  0.25950000  1.0 -0.0594510904
C  C77  1  0.52900000  0.04400000  0.23405000  1.0 -0.0416476374
C  C78  1  0.57780000  0.02150000  0.18683000  1.0 0.6003837118
C  C79  1  0.29450000  0.89210000  0.95680000  1.0 0.5305071751
C  C80  1  0.19050000  0.91300000  0.89330000  1.0 0.5242110545
C  C81  1  0.28380000  0.01520000  0.92370000  1.0 0.5305071751
C  C82  1  0.38270000  0.13780000  0.94950000  1.0 0.2138888071
C  C83  1  0.57610000  0.10060000  0.05070000  1.0 0.6178350503
C  C84  1  0.44250000  0.10120000  0.98590000  1.0 -0.1689251404
C  C85  1  0.51450000  0.14540000  0.01330000  1.0 -0.0036930802
C  C86  1  0.52700000  0.22580000  0.00560000  1.0 -0.0994363941
C  C87  1  0.46810000  0.26090000  0.96850000  1.0 -0.0757687783
C  C88  1  0.39630000  0.21910000  0.94030000  1.0 -0.1058389863
C  C89  1  0.33820000  0.26320000  0.90020000  1.0 0.6003837118
C  C90  1  0.35630000  0.76610000  0.99920000  1.0 0.2343518639
C  C91  1  0.42040000  0.73890000  0.03742000  1.0 -0.1225896908
C  C92  1  0.43990000  0.65740000  0.04200000  1.0 -0.0913162792
C  C93  1  0.39590000  0.60160000  0.00980000  1.0 -0.0994363941
C  C94  1  0.33040000  0.62970000  0.97190000  1.0 -0.0036930802
C  C95  1  0.30920000  0.71040000  0.96747000  1.0 -0.1689251404
C  C96  1  0.27960000  0.57300000  0.93821000  1.0 0.5894609148
C  C97  1  0.47460000  0.79170000  0.07318000  1.0 0.5894609148
C  C98  1  0.07010000  0.91140000  0.82046000  1.0 0.2390241379
C  C99  1  0.10400000  0.97820000  0.79550000  1.0 -0.1689251404
C  C100  1  0.98520000  0.86690000  0.80310000  1.0 -0.1860612875
C  C101  1  0.05410000  0.00020000  0.75290000  1.0 -0.0682503155
C  C102  1  0.93570000  0.89020000  0.75950000  1.0 -0.0594510904
C  C103  1  0.97100000  0.95600000  0.73405000  1.0 -0.0416476374
C  C104  1  0.92220000  0.97850000  0.68683000  1.0 0.6003837118
N  N1  1  0.71570000  0.50930000  0.11052000  1.0 -0.5001311844
N  N2  1  0.82510000  0.53050000  0.04139000  1.0 -0.5001311844
N  N3  1  0.72760000  0.64000000  0.07390000  1.0 -0.4886784499
N  N4  1  0.84240000  0.65100000  0.00692000  1.0 -0.3346269375
N  N5  1  0.80930000  0.40620000  0.07836000  1.0 -0.3346269375
N  N6  1  0.62010000  0.62070000  0.13813000  1.0 -0.3224787062
N  N7  1  0.78430000  0.49070000  0.61052000  1.0 -0.5001311844
N  N8  1  0.67490000  0.46950000  0.54139000  1.0 -0.5001311844
N  N9  1  0.77240000  0.36000000  0.57390000  1.0 -0.4886784499
N  N10  1  0.65760000  0.34900000  0.50692000  1.0 -0.335704047
N  N11  1  0.69070000  0.59380000  0.57836000  1.0 -0.335704047
N  N12  1  0.87990000  0.37930000  0.63813000  1.0 -0.3224787062
N  N13  1  0.28430000  0.00930000  0.38948000  1.0 -0.5001311844
N  N14  1  0.17490000  0.03050000  0.45861000  1.0 -0.5001311844
N  N15  1  0.27240000  0.14000000  0.42610000  1.0 -0.4886784499
N  N16  1  0.15760000  0.15100000  0.49308000  1.0 -0.335704047
N  N17  1  0.19070000  0.90620000  0.42164000  1.0 -0.3346269375
N  N18  1  0.37990000  0.12070000  0.36187000  1.0 -0.3224787062
N  N19  1  0.21570000  0.99070000  0.88948000  1.0 -0.5001311844
N  N20  1  0.32510000  0.96950000  0.95861000  1.0 -0.5001311844
N  N21  1  0.22760000  0.86000000  0.92610000  1.0 -0.4886784499
N  N22  1  0.34240000  0.84900000  0.99308000  1.0 -0.335704047
N  N23  1  0.30930000  0.09380000  0.92164000  1.0 -0.335704047
N  N24  1  0.12010000  0.87930000  0.86187000  1.0 -0.3224787062
O  O1  1  0.15160000  0.36580000  0.92846000  1.0 -0.5122194236
O  O2  1  0.04780000  0.47090000  0.94147000  1.0 -0.56020383
O  O3  1  0.77270000  0.27260000  0.12538000  1.0 -0.5122194236
O  O4  1  0.85980000  0.16200000  0.10333000  1.0 -0.524082387
O  O5  1  0.97580000  0.63200000  0.93618000  1.0 -0.56020383
O  O6  1  0.01900000  0.73560000  0.89032000  1.0 -0.531334812
O  O7  1  0.71090000  0.89670000  0.09212000  1.0 -0.56020383
O  O8  1  0.80470000  0.99910000  0.06153000  1.0 -0.5122194236
O  O9  1  0.45820000  0.45900000  0.33415000  1.0 -0.5373417681
O  O10  1  0.35210000  0.56570000  0.33050000  1.0 -0.524082387
O  O11  1  0.35500000  0.47630000  0.83430000  1.0 -0.3083690649
O  O12  1  0.34840000  0.63420000  0.42846000  1.0 -0.5122194236
O  O13  1  0.45220000  0.52910000  0.44147000  1.0 -0.56020383
O  O14  1  0.72730000  0.72740000  0.62538000  1.0 -0.5122194236
O  O15  1  0.64020000  0.83800000  0.60333000  1.0 -0.524082387
O  O16  1  0.52420000  0.36800000  0.43618000  1.0 -0.56020383
O  O17  1  0.48100000  0.26440000  0.39032000  1.0 -0.531334812
O  O18  1  0.78910000  0.10330000  0.59212000  1.0 -0.56020383
O  O19  1  0.69530000  0.00090000  0.56153000  1.0 -0.5122194236
O  O20  1  0.04180000  0.54100000  0.83415000  1.0 -0.5373417681
O  O21  1  0.14790000  0.43430000  0.83050000  1.0 -0.524082387
O  O22  1  0.14500000  0.52370000  0.33430000  1.0 -0.3083690649
O  O23  1  0.84840000  0.86580000  0.57154000  1.0 -0.5122194236
O  O24  1  0.95220000  0.97090000  0.55853000  1.0 -0.56020383
O  O25  1  0.22730000  0.77260000  0.37462000  1.0 -0.5122194236
O  O26  1  0.14020000  0.66200000  0.39667000  1.0 -0.524082387
O  O27  1  0.02420000  0.13200000  0.56382000  1.0 -0.56020383
O  O28  1  0.98100000  0.23560000  0.60968000  1.0 -0.531334812
O  O29  1  0.28910000  0.39670000  0.40788000  1.0 -0.56020383
O  O30  1  0.19530000  0.49910000  0.43847000  1.0 -0.5122194236
O  O31  1  0.54180000  0.95900000  0.16585000  1.0 -0.5373417681
O  O32  1  0.64790000  0.06570000  0.16950000  1.0 -0.524082387
O  O33  1  0.64500000  0.97630000  0.66570000  1.0 -0.3083690649
O  O34  1  0.65160000  0.13420000  0.07154000  1.0 -0.5122194236
O  O35  1  0.54780000  0.02910000  0.05853000  1.0 -0.56020383
O  O36  1  0.27270000  0.22740000  0.87462000  1.0 -0.5122194236
O  O37  1  0.35980000  0.33800000  0.89667000  1.0 -0.524082387
O  O38  1  0.47580000  0.86800000  0.06382000  1.0 -0.56020383
O  O39  1  0.51900000  0.76440000  0.10968000  1.0 -0.531334812
O  O40  1  0.21090000  0.60330000  0.90788000  1.0 -0.56020383
O  O41  1  0.30470000  0.50090000  0.93847000  1.0 -0.5122194236
O  O42  1  0.95820000  0.04100000  0.66585000  1.0 -0.5373417681
O  O43  1  0.85210000  0.93430000  0.66950000  1.0 -0.524082387
O  O44  1  0.85500000  0.02370000  0.16570000  1.0 -0.3083690649
