# DDEC6 charges by PACMAN v1.1 (https://github.com/mtap-research/PACMAN-charge/)
data_c9cc05019a2_ASR_pacman
_symmetry_space_group_name_H-M   'P 1'
_cell_length_a   12.88630000
_cell_length_b   12.88630000
_cell_length_c   13.21020000
_cell_angle_alpha   90.00000000
_cell_angle_beta   90.00000000
_cell_angle_gamma   90.00000000
_symmetry_Int_Tables_number   1
_chemical_formula_structural   ZnH4C7NO3
_chemical_formula_sum   'Zn8 H32 C56 N8 O24'
_cell_volume   2193.64258413
_cell_formula_units_Z   8
loop_
 _symmetry_equiv_pos_site_id
 _symmetry_equiv_pos_as_xyz
  1  'x, y, z'
loop_
 _atom_site_type_symbol
 _atom_site_label
 _atom_site_symmetry_multiplicity
 _atom_site_fract_x
 _atom_site_fract_y
 _atom_site_fract_z
 _atom_site_occupancy
 _atom_site_charge
Zn  Zn1  1  0.00000000  0.49357000  0.00000000  1.0 0.7843815314
Zn  Zn2  1  0.00000000  0.50643000  0.50000000  1.0 0.7843815314
Zn  Zn3  1  0.50643000  0.00000000  0.25000000  1.0 0.7843815314
Zn  Zn4  1  0.49357000  0.00000000  0.75000000  1.0 0.7843815314
Zn  Zn5  1  0.99840000  0.46900000  0.24810000  0.05 0.2080913128
Zn  Zn6  1  0.00160000  0.53100000  0.74810000  0.05 0.2183145868
Zn  Zn7  1  0.53100000  0.99840000  0.49810000  0.05 0.2080913128
Zn  Zn8  1  0.46900000  0.00160000  0.99810000  0.05 0.2183145868
Zn  Zn9  1  0.00160000  0.46900000  0.75190000  0.05 0.2183145868
Zn  Zn10  1  0.99840000  0.53100000  0.25190000  0.05 0.2183145868
Zn  Zn11  1  0.46900000  0.99840000  0.50190000  0.05 0.2183145868
Zn  Zn12  1  0.53100000  0.00160000  0.00190000  0.05 0.2183145868
Zn  Zn13  1  0.02840000  0.50000000  0.25000000  0.9 0.2183145868
Zn  Zn14  1  0.97160000  0.50000000  0.75000000  0.9 0.2183145868
Zn  Zn15  1  0.50000000  0.02840000  0.50000000  0.9 0.2183145868
Zn  Zn16  1  0.50000000  0.97160000  0.00000000  0.9 0.2183145868
H  H1  1  0.29200000  0.24790000  0.27300000  1.0 0.1033772898
H  H2  1  0.26250000  0.19580000  0.97550000  1.0 0.1033772898
H  H3  1  0.12560000  0.31140000  0.96900000  1.0 0.1267950574
H  H4  1  0.70800000  0.75210000  0.77300000  1.0 0.1033772898
H  H5  1  0.73750000  0.80420000  0.47550000  1.0 0.1033772898
H  H6  1  0.87440000  0.68860000  0.46900000  1.0 0.1267950574
H  H7  1  0.75210000  0.29200000  0.52300000  1.0 0.1033772898
H  H8  1  0.80420000  0.26250000  0.22550000  1.0 0.1033772898
H  H9  1  0.68860000  0.12560000  0.21900000  1.0 0.1267950574
H  H10  1  0.24790000  0.70800000  0.02300000  1.0 0.1033772898
H  H11  1  0.19580000  0.73750000  0.72550000  1.0 0.1033772898
H  H12  1  0.31140000  0.87440000  0.71900000  1.0 0.1267950574
H  H13  1  0.70800000  0.24790000  0.72700000  1.0 0.1033772898
H  H14  1  0.73750000  0.19580000  0.02450000  1.0 0.1033772898
H  H15  1  0.87440000  0.31140000  0.03100000  1.0 0.1267950574
H  H16  1  0.29200000  0.75210000  0.22700000  1.0 0.1033772898
H  H17  1  0.26250000  0.80420000  0.52450000  1.0 0.1033772898
H  H18  1  0.12560000  0.68860000  0.53100000  1.0 0.1267950574
H  H19  1  0.24790000  0.29200000  0.47700000  1.0 0.1033772898
H  H20  1  0.19580000  0.26250000  0.77450000  1.0 0.1033772898
H  H21  1  0.31140000  0.12560000  0.78100000  1.0 0.1267950574
H  H22  1  0.75210000  0.70800000  0.97700000  1.0 0.1033772898
H  H23  1  0.80420000  0.73750000  0.27450000  1.0 0.1033772898
H  H24  1  0.68860000  0.87440000  0.28100000  1.0 0.1267950574
H  H25  1  0.19020000  0.43140000  0.31560000  0.05 0.2478278207
H  H26  1  0.12890000  0.34290000  0.34640000  0.05 0.2080913128
H  H27  1  0.80980000  0.56860000  0.81560000  0.05 0.2478278207
H  H28  1  0.87110000  0.65710000  0.84640000  0.05 0.2080913128
H  H29  1  0.56860000  0.19020000  0.56560000  0.05 0.2478278207
H  H30  1  0.65710000  0.12890000  0.59640000  0.05 0.2080913128
H  H31  1  0.43140000  0.80980000  0.06560000  0.05 0.2478278207
H  H32  1  0.34290000  0.87110000  0.09640000  0.05 0.2080913128
H  H33  1  0.80980000  0.43140000  0.68440000  0.05 0.2478278207
H  H34  1  0.87110000  0.34290000  0.65360000  0.05 0.2080913128
H  H35  1  0.19020000  0.56860000  0.18440000  0.05 0.2478278207
H  H36  1  0.12890000  0.65710000  0.15360000  0.05 0.2080913128
H  H37  1  0.43140000  0.19020000  0.43440000  0.05 0.2478278207
H  H38  1  0.34290000  0.12890000  0.40360000  0.05 0.2080913128
H  H39  1  0.56860000  0.80980000  0.93440000  0.05 0.2478278207
H  H40  1  0.65710000  0.87110000  0.90360000  0.05 0.2080913128
H  H41  1  0.19570000  0.41770000  0.32510000  0.45 0.1840071233
H  H42  1  0.11430000  0.34250000  0.34010000  0.45 0.2629149633
H  H43  1  0.80430000  0.58230000  0.82510000  0.45 0.1840071233
H  H44  1  0.88570000  0.65750000  0.84010000  0.45 0.2629149633
H  H45  1  0.58230000  0.19570000  0.57510000  0.45 0.1840071233
H  H46  1  0.65750000  0.11430000  0.59010000  0.45 0.2629149633
H  H47  1  0.41770000  0.80430000  0.07510000  0.45 0.1840071233
H  H48  1  0.34250000  0.88570000  0.09010000  0.45 0.2629149633
H  H49  1  0.80430000  0.41770000  0.67490000  0.45 0.1840071233
H  H50  1  0.88570000  0.34250000  0.65990000  0.45 0.2629149633
H  H51  1  0.19570000  0.58230000  0.17490000  0.45 0.1840071233
H  H52  1  0.11430000  0.65750000  0.15990000  0.45 0.2629149633
H  H53  1  0.41770000  0.19570000  0.42490000  0.45 0.1840071233
H  H54  1  0.34250000  0.11430000  0.40990000  0.45 0.2629149633
H  H55  1  0.58230000  0.80430000  0.92490000  0.45 0.1840071233
H  H56  1  0.65750000  0.88570000  0.90990000  0.45 0.2629149633
C  C1  1  0.12470000  0.34940000  0.11860000  1.0 0.1588145198
C  C2  1  0.37580000  0.13100000  0.13070000  1.0 0.407748296
C  C3  1  0.25840000  0.25980000  0.21180000  1.0 -0.19631186
C  C4  1  0.17730000  0.32980000  0.20770000  1.0 -0.0324693951
C  C5  1  0.29030000  0.20700000  0.12580000  1.0 -0.0408854892
C  C6  1  0.24050000  0.22850000  0.03440000  1.0 -0.1091157941
C  C7  1  0.15840000  0.29830000  0.03040000  1.0 -0.2277199065
C  C8  1  0.87530000  0.65060000  0.61860000  1.0 0.1588145198
C  C9  1  0.62420000  0.86900000  0.63070000  1.0 0.407748296
C  C10  1  0.74160000  0.74020000  0.71180000  1.0 -0.1947884185
C  C11  1  0.82270000  0.67020000  0.70770000  1.0 -0.0324693951
C  C12  1  0.70970000  0.79300000  0.62580000  1.0 -0.0408854892
C  C13  1  0.75950000  0.77150000  0.53440000  1.0 -0.1091157941
C  C14  1  0.84160000  0.70170000  0.53040000  1.0 -0.2277199065
C  C15  1  0.65060000  0.12470000  0.36860000  1.0 0.1588145198
C  C16  1  0.86900000  0.37580000  0.38070000  1.0 0.407748296
C  C17  1  0.74020000  0.25840000  0.46180000  1.0 -0.19631186
C  C18  1  0.67020000  0.17730000  0.45770000  1.0 -0.0324693951
C  C19  1  0.79300000  0.29030000  0.37580000  1.0 -0.0408854892
C  C20  1  0.77150000  0.24050000  0.28440000  1.0 -0.1091157941
C  C21  1  0.70170000  0.15840000  0.28040000  1.0 -0.2277199065
C  C22  1  0.34940000  0.87530000  0.86860000  1.0 0.1588145198
C  C23  1  0.13100000  0.62420000  0.88070000  1.0 0.407748296
C  C24  1  0.25980000  0.74160000  0.96180000  1.0 -0.19631186
C  C25  1  0.32980000  0.82270000  0.95770000  1.0 -0.0324693951
C  C26  1  0.20700000  0.70970000  0.87580000  1.0 -0.0408854892
C  C27  1  0.22850000  0.75950000  0.78440000  1.0 -0.1091157941
C  C28  1  0.29830000  0.84160000  0.78040000  1.0 -0.2277199065
C  C29  1  0.87530000  0.34940000  0.88140000  1.0 0.1588145198
C  C30  1  0.62420000  0.13100000  0.86930000  1.0 0.407748296
C  C31  1  0.74160000  0.25980000  0.78820000  1.0 -0.19631186
C  C32  1  0.82270000  0.32980000  0.79230000  1.0 -0.0324693951
C  C33  1  0.70970000  0.20700000  0.87420000  1.0 -0.0408854892
C  C34  1  0.75950000  0.22850000  0.96560000  1.0 -0.1091157941
C  C35  1  0.84160000  0.29830000  0.96960000  1.0 -0.2277199065
C  C36  1  0.12470000  0.65060000  0.38140000  1.0 0.1588145198
C  C37  1  0.37580000  0.86900000  0.36930000  1.0 0.407748296
C  C38  1  0.25840000  0.74020000  0.28820000  1.0 -0.19631186
C  C39  1  0.17730000  0.67020000  0.29230000  1.0 -0.0324693951
C  C40  1  0.29030000  0.79300000  0.37420000  1.0 -0.0408854892
C  C41  1  0.24050000  0.77150000  0.46560000  1.0 -0.1091157941
C  C42  1  0.15840000  0.70170000  0.46960000  1.0 -0.2277199065
C  C43  1  0.34940000  0.12470000  0.63140000  1.0 0.1588145198
C  C44  1  0.13100000  0.37580000  0.61930000  1.0 0.407748296
C  C45  1  0.25980000  0.25840000  0.53820000  1.0 -0.19631186
C  C46  1  0.32980000  0.17730000  0.54230000  1.0 -0.0324693951
C  C47  1  0.20700000  0.29030000  0.62420000  1.0 -0.0408854892
C  C48  1  0.22850000  0.24050000  0.71560000  1.0 -0.1091157941
C  C49  1  0.29830000  0.15840000  0.71960000  1.0 -0.2277199065
C  C50  1  0.65060000  0.87530000  0.13140000  1.0 0.1588145198
C  C51  1  0.86900000  0.62420000  0.11930000  1.0 0.401065998
C  C52  1  0.74020000  0.74160000  0.03820000  1.0 -0.19631186
C  C53  1  0.67020000  0.82270000  0.04230000  1.0 -0.0324693951
C  C54  1  0.79300000  0.70970000  0.12420000  1.0 -0.0408854892
C  C55  1  0.77150000  0.75950000  0.21560000  1.0 -0.1091157941
C  C56  1  0.70170000  0.84160000  0.21960000  1.0 -0.2277199065
N  N1  1  0.14220000  0.38620000  0.29560000  1.0 -0.5092289632
N  N2  1  0.85780000  0.61380000  0.79560000  1.0 -0.5092289632
N  N3  1  0.61380000  0.14220000  0.54560000  1.0 -0.5092289632
N  N4  1  0.38620000  0.85780000  0.04560000  1.0 -0.5092289632
N  N5  1  0.85780000  0.38620000  0.70440000  1.0 -0.5092289632
N  N6  1  0.14220000  0.61380000  0.20440000  1.0 -0.5092289632
N  N7  1  0.38620000  0.14220000  0.45440000  1.0 -0.5092289632
N  N8  1  0.61380000  0.85780000  0.95440000  1.0 -0.5092289632
O  O1  1  0.04510000  0.41500000  0.11661000  1.0 -0.4761688356
O  O2  1  0.41580000  0.11460000  0.21710000  1.0 -0.5693998707
O  O3  1  0.40280000  0.08520000  0.05440000  1.0 -0.3582933841
O  O4  1  0.95490000  0.58500000  0.61661000  1.0 -0.4761688356
O  O5  1  0.58420000  0.88540000  0.71710000  1.0 -0.5693998707
O  O6  1  0.59720000  0.91480000  0.55440000  1.0 -0.3582933841
O  O7  1  0.58500000  0.04510000  0.36661000  1.0 -0.4761688356
O  O8  1  0.88540000  0.41580000  0.46710000  1.0 -0.5693998707
O  O9  1  0.91480000  0.40280000  0.30440000  1.0 -0.3582933841
O  O10  1  0.41500000  0.95490000  0.86661000  1.0 -0.4747459961
O  O11  1  0.11460000  0.58420000  0.96710000  1.0 -0.5693998707
O  O12  1  0.08520000  0.59720000  0.80440000  1.0 -0.3582933841
O  O13  1  0.95490000  0.41500000  0.88339000  1.0 -0.4761688356
O  O14  1  0.58420000  0.11460000  0.78290000  1.0 -0.5693998707
O  O15  1  0.59720000  0.08520000  0.94560000  1.0 -0.3582933841
O  O16  1  0.04510000  0.58500000  0.38339000  1.0 -0.4761688356
O  O17  1  0.41580000  0.88540000  0.28290000  1.0 -0.5693998707
O  O18  1  0.40280000  0.91480000  0.44560000  1.0 -0.3582933841
O  O19  1  0.41500000  0.04510000  0.63339000  1.0 -0.4761688356
O  O20  1  0.11460000  0.41580000  0.53290000  1.0 -0.5693998707
O  O21  1  0.08520000  0.40280000  0.69560000  1.0 -0.3582933841
O  O22  1  0.58500000  0.95490000  0.13339000  1.0 -0.4761688356
O  O23  1  0.88540000  0.58420000  0.03290000  1.0 -0.5693998707
O  O24  1  0.91480000  0.59720000  0.19560000  1.0 -0.3582933841
