# DDEC6 charges by PACMAN v1.1 (https://github.com/mtap-research/PACMAN-charge/)
data_2017[ZnSi][sql]2[ASR]2
_chemical_formula_sum              "Zn4 Si4 H64 C80 S8 N16 F24"
_cell_length_a       10.1705
_cell_length_b       19.3581
_cell_length_c       15.2722
_cell_angle_alpha    90
_cell_angle_beta     90
_cell_angle_gamma    90

_symmetry_space_group_name_H-M    "P 1"
_symmetry_Int_Tables_number       1

loop_
  _symmetry_equiv_pos_as_xyz
  'x, y, z'

loop_
  _atom_site_type_symbol
  _atom_site_label
  _atom_site_symmetry_multiplicity
  _atom_site_fract_x
  _atom_site_fract_y
  _atom_site_fract_z
  _atom_site_occupancy
  _atom_site_charge
Zn  Zn1       1.0  0.00000  0.50000  0.75000  1.0000 0.7666266433
Zn  Zn2       1.0  0.00000  0.50000  0.25000  1.0000 0.7666266433
Zn  Zn3       1.0  0.50000  0.00000  0.25000  1.0000 0.7666266433
Zn  Zn4       1.0  0.50000  0.00000  0.75000  1.0000 0.7666266433
Si  Si1       1.0  0.00000  0.50000  0.50000  1.0000 1.7256448738
Si  Si2       1.0  0.00000  0.50000  0.00000  1.0000 1.7256448738
Si  Si3       1.0  0.50000  0.00000  0.00000  1.0000 1.7245994083
Si  Si4       1.0  0.50000  0.00000  0.50000  1.0000 1.7256448738
H   H1        1.0  0.57340  0.61233  0.63170  1.0000 0.1288215242
H   H2        1.0  0.72410  0.70871  0.86790  1.0000 0.1288215242
H   H3        1.0  0.91080  0.62341  0.86330  1.0000 0.0996093298
H   H4        1.0  0.77030  0.53525  0.63380  1.0000 0.0996093298
H   H5        1.0  0.42660  0.38767  0.63170  1.0000 0.1288215242
H   H6        1.0  0.27590  0.29129  0.86790  1.0000 0.1288215242
H   H7        1.0  0.08920  0.37659  0.86330  1.0000 0.0996093298
H   H8        1.0  0.22970  0.46475  0.63380  1.0000 0.0996093298
H   H9        1.0  0.42660  0.61233  0.86830  1.0000 0.1288215242
H   H10       1.0  0.27590  0.70871  0.63210  1.0000 0.1288215242
H   H11       1.0  0.08920  0.62341  0.63670  1.0000 0.0996093298
H   H12       1.0  0.22970  0.53525  0.86620  1.0000 0.0996093298
H   H13       1.0  0.57340  0.38767  0.86830  1.0000 0.1288215242
H   H14       1.0  0.72410  0.29129  0.63210  1.0000 0.1288215242
H   H15       1.0  0.91080  0.37659  0.63670  1.0000 0.0996093298
H   H16       1.0  0.77030  0.46475  0.86620  1.0000 0.0996093298
H   H17       1.0  0.42660  0.38767  0.36830  1.0000 0.1288215242
H   H18       1.0  0.27590  0.29129  0.13210  1.0000 0.1288215242
H   H19       1.0  0.08920  0.37659  0.13670  1.0000 0.0996093298
H   H20       1.0  0.22970  0.46475  0.36620  1.0000 0.0996093298
H   H21       1.0  0.57340  0.61233  0.36830  1.0000 0.1288215242
H   H22       1.0  0.72410  0.70871  0.13210  1.0000 0.1288215242
H   H23       1.0  0.91080  0.62341  0.13670  1.0000 0.0996093298
H   H24       1.0  0.77030  0.53525  0.36620  1.0000 0.0996093298
H   H25       1.0  0.57340  0.38767  0.13170  1.0000 0.1288215242
H   H26       1.0  0.72410  0.29129  0.36790  1.0000 0.1288215242
H   H27       1.0  0.91080  0.37659  0.36330  1.0000 0.0996093298
H   H28       1.0  0.77030  0.46475  0.13380  1.0000 0.0996093298
H   H29       1.0  0.42660  0.61233  0.13170  1.0000 0.1288215242
H   H30       1.0  0.27590  0.70871  0.36790  1.0000 0.1288215242
H   H31       1.0  0.08920  0.62341  0.36330  1.0000 0.0996093298
H   H32       1.0  0.22970  0.53525  0.13380  1.0000 0.0996093298
H   H33       1.0  0.07340  0.11233  0.13170  1.0000 0.1288215242
H   H34       1.0  0.22410  0.20871  0.36790  1.0000 0.1288215242
H   H35       1.0  0.41080  0.12341  0.36330  1.0000 0.0996093298
H   H36       1.0  0.27030  0.03525  0.13380  1.0000 0.0996093298
H   H37       1.0  0.92660  0.88767  0.13170  1.0000 0.1288215242
H   H38       1.0  0.77590  0.79129  0.36790  1.0000 0.1288215242
H   H39       1.0  0.58920  0.87659  0.36330  1.0000 0.0996093298
H   H40       1.0  0.72970  0.96475  0.13380  1.0000 0.0996093298
H   H41       1.0  0.92660  0.11233  0.36830  1.0000 0.1288215242
H   H42       1.0  0.77590  0.20871  0.13210  1.0000 0.1288215242
H   H43       1.0  0.58920  0.12341  0.13670  1.0000 0.0996093298
H   H44       1.0  0.72970  0.03525  0.36620  1.0000 0.0996093298
H   H45       1.0  0.07340  0.88767  0.36830  1.0000 0.1288215242
H   H46       1.0  0.22410  0.79129  0.13210  1.0000 0.1288215242
H   H47       1.0  0.41080  0.87659  0.13670  1.0000 0.0996093298
H   H48       1.0  0.27030  0.96475  0.36620  1.0000 0.0996093298
H   H49       1.0  0.92660  0.88767  0.86830  1.0000 0.1288215242
H   H50       1.0  0.77590  0.79129  0.63210  1.0000 0.1288215242
H   H51       1.0  0.58920  0.87659  0.63670  1.0000 0.0996093298
H   H52       1.0  0.72970  0.96475  0.86620  1.0000 0.0996093298
H   H53       1.0  0.07340  0.11233  0.86830  1.0000 0.1288215242
H   H54       1.0  0.22410  0.20871  0.63210  1.0000 0.1288215242
H   H55       1.0  0.41080  0.12341  0.63670  1.0000 0.0996093298
H   H56       1.0  0.27030  0.03525  0.86620  1.0000 0.0996093298
H   H57       1.0  0.07340  0.88767  0.63170  1.0000 0.1288215242
H   H58       1.0  0.22410  0.79129  0.86790  1.0000 0.1288215242
H   H59       1.0  0.41080  0.87659  0.86330  1.0000 0.0996093298
H   H60       1.0  0.27030  0.96475  0.63380  1.0000 0.0996093298
H   H61       1.0  0.92660  0.11233  0.63170  1.0000 0.1288215242
H   H62       1.0  0.77590  0.20871  0.86790  1.0000 0.1288215242
H   H63       1.0  0.58920  0.12341  0.86330  1.0000 0.0996093298
H   H64       1.0  0.72970  0.03525  0.63380  1.0000 0.0996093298
C   C1        1.0  0.63430  0.66723  0.74990  1.0000 0.0996093298
C   C2        1.0  0.64620  0.61727  0.68380  1.0000 -0.1828331851
C   C3        1.0  0.73100  0.67105  0.81500  1.0000 -0.1913714536
C   C4        1.0  0.83550  0.62431  0.81220  1.0000 0.1093088981
C   C5        1.0  0.75460  0.57362  0.68510  1.0000 0.1093088981
C   C6        1.0  0.36570  0.33277  0.74990  1.0000 0.0996093298
C   C7        1.0  0.35380  0.38273  0.68380  1.0000 -0.1828331851
C   C8        1.0  0.26900  0.32895  0.81500  1.0000 -0.1913714536
C   C9        1.0  0.16450  0.37569  0.81220  1.0000 0.1093088981
C   C10       1.0  0.24540  0.42638  0.68510  1.0000 0.1093088981
C   C11       1.0  0.36570  0.66723  0.75010  1.0000 0.0996093298
C   C12       1.0  0.35380  0.61727  0.81620  1.0000 -0.1828331851
C   C13       1.0  0.26900  0.67105  0.68500  1.0000 -0.1913714536
C   C14       1.0  0.16450  0.62431  0.68780  1.0000 0.1093088981
C   C15       1.0  0.24540  0.57362  0.81490  1.0000 0.1093088981
C   C16       1.0  0.63430  0.33277  0.75010  1.0000 0.0996093298
C   C17       1.0  0.64620  0.38273  0.81620  1.0000 -0.1828331851
C   C18       1.0  0.73100  0.32895  0.68500  1.0000 -0.1913714536
C   C19       1.0  0.83550  0.37569  0.68780  1.0000 0.1093088981
C   C20       1.0  0.75460  0.42638  0.81490  1.0000 0.1093088981
C   C21       1.0  0.36570  0.33277  0.25010  1.0000 0.0996093298
C   C22       1.0  0.35380  0.38273  0.31620  1.0000 -0.1828331851
C   C23       1.0  0.26900  0.32895  0.18500  1.0000 -0.1913714536
C   C24       1.0  0.16450  0.37569  0.18780  1.0000 0.1093088981
C   C25       1.0  0.24540  0.42638  0.31490  1.0000 0.1093088981
C   C26       1.0  0.63430  0.66723  0.25010  1.0000 0.0996093298
C   C27       1.0  0.64620  0.61727  0.31620  1.0000 -0.1828331851
C   C28       1.0  0.73100  0.67105  0.18500  1.0000 -0.1913714536
C   C29       1.0  0.83550  0.62431  0.18780  1.0000 0.1093088981
C   C30       1.0  0.75460  0.57362  0.31490  1.0000 0.1093088981
C   C31       1.0  0.63430  0.33277  0.24990  1.0000 0.0996093298
C   C32       1.0  0.64620  0.38273  0.18380  1.0000 -0.1828331851
C   C33       1.0  0.73100  0.32895  0.31500  1.0000 -0.1913714536
C   C34       1.0  0.83550  0.37569  0.31220  1.0000 0.1093088981
C   C35       1.0  0.75460  0.42638  0.18510  1.0000 0.1093088981
C   C36       1.0  0.36570  0.66723  0.24990  1.0000 0.0996093298
C   C37       1.0  0.35380  0.61727  0.18380  1.0000 -0.1828331851
C   C38       1.0  0.26900  0.67105  0.31500  1.0000 -0.1913714536
C   C39       1.0  0.16450  0.62431  0.31220  1.0000 0.1093088981
C   C40       1.0  0.24540  0.57362  0.18510  1.0000 0.1093088981
C   C41       1.0  0.13430  0.16723  0.24990  1.0000 0.0996093298
C   C42       1.0  0.14620  0.11727  0.18380  1.0000 -0.1828331851
C   C43       1.0  0.23100  0.17105  0.31500  1.0000 -0.1913714536
C   C44       1.0  0.33550  0.12431  0.31220  1.0000 0.1093088981
C   C45       1.0  0.25460  0.07362  0.18510  1.0000 0.1093088981
C   C46       1.0  0.86570  0.83277  0.24990  1.0000 0.0996093298
C   C47       1.0  0.85380  0.88273  0.18380  1.0000 -0.1828331851
C   C48       1.0  0.76900  0.82895  0.31500  1.0000 -0.1913714536
C   C49       1.0  0.66450  0.87569  0.31220  1.0000 0.1093088981
C   C50       1.0  0.74540  0.92638  0.18510  1.0000 0.1093088981
C   C51       1.0  0.86570  0.16723  0.25010  1.0000 0.0996093298
C   C52       1.0  0.85380  0.11727  0.31620  1.0000 -0.1828331851
C   C53       1.0  0.76900  0.17105  0.18500  1.0000 -0.1913714536
C   C54       1.0  0.66450  0.12431  0.18780  1.0000 0.1093088981
C   C55       1.0  0.74540  0.07362  0.31490  1.0000 0.1093088981
C   C56       1.0  0.13430  0.83277  0.25010  1.0000 0.0996093298
C   C57       1.0  0.14620  0.88273  0.31620  1.0000 -0.1828331851
C   C58       1.0  0.23100  0.82895  0.18500  1.0000 -0.1913714536
C   C59       1.0  0.33550  0.87569  0.18780  1.0000 0.1093088981
C   C60       1.0  0.25460  0.92638  0.31490  1.0000 0.1093088981
C   C61       1.0  0.86570  0.83277  0.75010  1.0000 0.0996093298
C   C62       1.0  0.85380  0.88273  0.81620  1.0000 -0.1828331851
C   C63       1.0  0.76900  0.82895  0.68500  1.0000 -0.1913714536
C   C64       1.0  0.66450  0.87569  0.68780  1.0000 0.1093088981
C   C65       1.0  0.74540  0.92638  0.81490  1.0000 0.1093088981
C   C66       1.0  0.13430  0.16723  0.75010  1.0000 0.0996093298
C   C67       1.0  0.14620  0.11727  0.81620  1.0000 -0.1828331851
C   C68       1.0  0.23100  0.17105  0.68500  1.0000 -0.1913714536
C   C69       1.0  0.33550  0.12431  0.68780  1.0000 0.1093088981
C   C70       1.0  0.25460  0.07362  0.81490  1.0000 0.1093088981
C   C71       1.0  0.13430  0.83277  0.74990  1.0000 0.0996093298
C   C72       1.0  0.14620  0.88273  0.68380  1.0000 -0.1828331851
C   C73       1.0  0.23100  0.82895  0.81500  1.0000 -0.1913714536
C   C74       1.0  0.33550  0.87569  0.81220  1.0000 0.1093088981
C   C75       1.0  0.25460  0.92638  0.68510  1.0000 0.1093088981
C   C76       1.0  0.86570  0.16723  0.74990  1.0000 0.0996093298
C   C77       1.0  0.85380  0.11727  0.68380  1.0000 -0.1828331851
C   C78       1.0  0.76900  0.17105  0.81500  1.0000 -0.1913714536
C   C79       1.0  0.66450  0.12431  0.81220  1.0000 0.1093088981
C   C80       1.0  0.74540  0.07362  0.68510  1.0000 0.1093088981
S   S1        1.0  0.50000  0.72630  0.75000  1.0000 0.0231102366
S   S2        1.0  0.50000  0.27370  0.75000  1.0000 0.0231102366
S   S3        1.0  0.50000  0.27370  0.25000  1.0000 0.0231102366
S   S4        1.0  0.50000  0.72630  0.25000  1.0000 0.0231102366
S   S5        1.0  0.00000  0.22630  0.25000  1.0000 0.0231102366
S   S6        1.0  0.00000  0.77370  0.25000  1.0000 0.0231102366
S   S7        1.0  0.00000  0.77370  0.75000  1.0000 0.0231102366
S   S8        1.0  0.00000  0.22630  0.75000  1.0000 0.0231102366
N   N1        1.0  0.84750  0.57683  0.74830  1.0000 -0.2484424837
N   N2        1.0  0.15250  0.42317  0.74830  1.0000 -0.2484424837
N   N3        1.0  0.15250  0.57683  0.75170  1.0000 -0.2484424837
N   N4        1.0  0.84750  0.42317  0.75170  1.0000 -0.2484424837
N   N5        1.0  0.15250  0.42317  0.25170  1.0000 -0.2484424837
N   N6        1.0  0.84750  0.57683  0.25170  1.0000 -0.2484424837
N   N7        1.0  0.84750  0.42317  0.24830  1.0000 -0.2484424837
N   N8        1.0  0.15250  0.57683  0.24830  1.0000 -0.2484424837
N   N9        1.0  0.34750  0.07683  0.24830  1.0000 -0.2484424837
N   N10       1.0  0.65250  0.92317  0.24830  1.0000 -0.2484424837
N   N11       1.0  0.65250  0.07683  0.25170  1.0000 -0.2484424837
N   N12       1.0  0.34750  0.92317  0.25170  1.0000 -0.2484424837
N   N13       1.0  0.65250  0.92317  0.75170  1.0000 -0.2484424837
N   N14       1.0  0.34750  0.07683  0.75170  1.0000 -0.2484424837
N   N15       1.0  0.34750  0.92317  0.74830  1.0000 -0.2484424837
N   N16       1.0  0.65250  0.07683  0.74830  1.0000 -0.2484424837
F   F1        1.0  0.00000  0.50000  0.61540  1.0000 -0.5125877984
F   F2        1.0  0.00000  0.50000  0.88460  1.0000 -0.5125877984
F   F3        1.0  0.00000  0.50000  0.38460  1.0000 -0.5125877984
F   F4        1.0  0.00000  0.50000  0.11540  1.0000 -0.5125877984
F   F5        1.0  0.14930  0.53730  0.50000  1.0000 -0.5422964223
F   F6        1.0  0.05720  0.42190  0.50000  1.0000 -0.5191145145
F   F7        1.0  0.85070  0.46270  0.50000  1.0000 -0.5422964223
F   F8        1.0  0.94280  0.57810  0.50000  1.0000 -0.5191145145
F   F9        1.0  0.85070  0.53730  0.00000  1.0000 -0.5422964223
F   F10       1.0  0.94280  0.42190  0.00000  1.0000 -0.5191145145
F   F11       1.0  0.14930  0.46270  0.00000  1.0000 -0.5422964223
F   F12       1.0  0.05720  0.57810  0.00000  1.0000 -0.5191145145
F   F13       1.0  0.50000  0.00000  0.11540  1.0000 -0.5125877984
F   F14       1.0  0.50000  0.00000  0.38460  1.0000 -0.5125877984
F   F15       1.0  0.50000  0.00000  0.88460  1.0000 -0.5125877984
F   F16       1.0  0.50000  0.00000  0.61540  1.0000 -0.5125877984
F   F17       1.0  0.64930  0.03730  0.00000  1.0000 -0.5422964223
F   F18       1.0  0.55720  0.92190  0.00000  1.0000 -0.5191145145
F   F19       1.0  0.35070  0.96270  0.00000  1.0000 -0.5422964223
F   F20       1.0  0.44280  0.07810  0.00000  1.0000 -0.5191145145
F   F21       1.0  0.35070  0.03730  0.50000  1.0000 -0.5422964223
F   F22       1.0  0.44280  0.92190  0.50000  1.0000 -0.5191145145
F   F23       1.0  0.64930  0.96270  0.50000  1.0000 -0.5422964223
F   F24       1.0  0.55720  0.07810  0.50000  1.0000 -0.5191145145
