# DDEC6 charges by PACMAN v1.1 (https://github.com/mtap-research/PACMAN-charge/)
data_ja8b02994_si_006_ASR_pacman
_symmetry_space_group_name_H-M   'P 1'
_cell_length_a   11.29100000
_cell_length_b   15.79900000
_cell_length_c   18.29200000
_cell_angle_alpha   90.00000000
_cell_angle_beta   90.00000000
_cell_angle_gamma   90.00000000
_symmetry_Int_Tables_number   1
_chemical_formula_structural   ZnH12C25BrNO4
_chemical_formula_sum   'Zn2 H24 C50 Br2 N2 O8'
_cell_volume   3263.04602263
_cell_formula_units_Z   2
loop_
 _symmetry_equiv_pos_site_id
 _symmetry_equiv_pos_as_xyz
  1  'x, y, z'
loop_
 _atom_site_type_symbol
 _atom_site_label
 _atom_site_symmetry_multiplicity
 _atom_site_fract_x
 _atom_site_fract_y
 _atom_site_fract_z
 _atom_site_occupancy
 _atom_site_charge
Zn  Zn1  1  0.50000000  0.50000000  0.08068000  1.0 0.7788623454
Zn  Zn2  1  0.50000000  0.50000000  0.91932000  1.0 0.7788623454
H  H1  1  0.24893000  0.29534000  0.10868000  1.0 0.1293601277
H  H2  1  0.13655000  0.17195000  0.10768000  1.0 0.1229018824
H  H3  1  0.75107000  0.70466000  0.10868000  1.0 0.1293601277
H  H4  1  0.86345000  0.82805000  0.10768000  1.0 0.1229018824
H  H5  1  0.75107000  0.29534000  0.89132000  1.0 0.1293601277
H  H6  1  0.86345000  0.17195000  0.89232000  1.0 0.1229018824
H  H7  1  0.24893000  0.70466000  0.89132000  1.0 0.1293601277
H  H8  1  0.13655000  0.82805000  0.89232000  1.0 0.1229018824
H  H9  1  0.75107000  0.70466000  0.89132000  1.0 0.1293601277
H  H10  1  0.86345000  0.82805000  0.89232000  1.0 0.1229018824
H  H11  1  0.24893000  0.29534000  0.89132000  1.0 0.1293601277
H  H12  1  0.13655000  0.17195000  0.89232000  1.0 0.1229018824
H  H13  1  0.24893000  0.70466000  0.10868000  1.0 0.1293601277
H  H14  1  0.13655000  0.82805000  0.10768000  1.0 0.1229018824
H  H15  1  0.75107000  0.29534000  0.10868000  1.0 0.1293601277
H  H16  1  0.86345000  0.17195000  0.10768000  1.0 0.1229018824
H  H17  1  0.34632000  0.44927000  0.20184000  0.5 0.0958265173
H  H18  1  0.34315000  0.44058000  0.32761000  0.5 0.1076167705
H  H19  1  0.65368000  0.55073000  0.20184000  0.5 0.0958265173
H  H20  1  0.65685000  0.55942000  0.32761000  0.5 0.1076167705
H  H21  1  0.65368000  0.44927000  0.79816000  0.5 0.0958265173
H  H22  1  0.65685000  0.44058000  0.67239000  0.5 0.1076167705
H  H23  1  0.34632000  0.55073000  0.79816000  0.5 0.0958265173
H  H24  1  0.34315000  0.55942000  0.67239000  0.5 0.1076167705
H  H25  1  0.65368000  0.55073000  0.79816000  0.5 0.0958265173
H  H26  1  0.65685000  0.55942000  0.67239000  0.5 0.1076167705
H  H27  1  0.34632000  0.44927000  0.79816000  0.5 0.0958265173
H  H28  1  0.34315000  0.44058000  0.67239000  0.5 0.1076167705
H  H29  1  0.34632000  0.55073000  0.20184000  0.5 0.0958265173
H  H30  1  0.34315000  0.55942000  0.32761000  0.5 0.1076167705
H  H31  1  0.65368000  0.44927000  0.20184000  0.5 0.0958265173
H  H32  1  0.65685000  0.44058000  0.32761000  0.5 0.1076167705
C  C1  1  0.22740000  0.27040000  0.06390000  1.0 -0.1019085428
C  C2  1  0.16000000  0.19630000  0.06310000  1.0 -0.1503960831
C  C3  1  0.77260000  0.72960000  0.06390000  1.0 -0.1019085428
C  C4  1  0.84000000  0.80370000  0.06310000  1.0 -0.1503960831
C  C5  1  0.77260000  0.27040000  0.93610000  1.0 -0.1019085428
C  C6  1  0.84000000  0.19630000  0.93690000  1.0 -0.1503960831
C  C7  1  0.22740000  0.72960000  0.93610000  1.0 -0.1019085428
C  C8  1  0.16000000  0.80370000  0.93690000  1.0 -0.1503960831
C  C9  1  0.77260000  0.72960000  0.93610000  1.0 -0.1019085428
C  C10  1  0.84000000  0.80370000  0.93690000  1.0 -0.1503960831
C  C11  1  0.22740000  0.27040000  0.93610000  1.0 -0.1019085428
C  C12  1  0.16000000  0.19630000  0.93690000  1.0 -0.1503960831
C  C13  1  0.22740000  0.72960000  0.06390000  1.0 -0.1019085428
C  C14  1  0.16000000  0.80370000  0.06310000  1.0 -0.1503960831
C  C15  1  0.77260000  0.27040000  0.06390000  1.0 -0.1019085428
C  C16  1  0.84000000  0.19630000  0.06310000  1.0 -0.1503960831
C  C17  1  0.12220000  0.00000000  0.00000000  1.0 -0.0008949417
C  C18  1  0.87780000  0.00000000  0.00000000  1.0 -0.0008949417
C  C19  1  0.50000000  0.50000000  0.34130000  1.0 -0.0113274851
C  C20  1  0.50000000  0.50000000  0.42390000  1.0 0.0684262534
C  C21  1  0.50000000  0.50000000  0.65870000  1.0 -0.0113274851
C  C22  1  0.50000000  0.50000000  0.57610000  1.0 0.0684262534
C  C23  1  0.34530000  0.38140000  0.00000000  1.0 0.5811097207
C  C24  1  0.26170000  0.30630000  0.00000000  1.0 -0.0113274851
C  C25  1  0.12750000  0.15860000  0.00000000  1.0 0.0684262534
C  C26  1  0.06160000  0.07730000  0.00000000  1.0 -0.0113274851
C  C27  1  0.65470000  0.61860000  0.00000000  1.0 0.5811097207
C  C28  1  0.73830000  0.69370000  0.00000000  1.0 -0.0113274851
C  C29  1  0.87250000  0.84140000  0.00000000  1.0 0.0684262534
C  C30  1  0.93840000  0.92270000  0.00000000  1.0 -0.0113274851
C  C31  1  0.65470000  0.38140000  0.00000000  1.0 0.5811097207
C  C32  1  0.73830000  0.30630000  0.00000000  1.0 -0.0113274851
C  C33  1  0.87250000  0.15860000  0.00000000  1.0 0.0684262534
C  C34  1  0.93840000  0.07730000  0.00000000  1.0 -0.0113274851
C  C35  1  0.34530000  0.61860000  0.00000000  1.0 0.5811097207
C  C36  1  0.26170000  0.69370000  0.00000000  1.0 -0.0113274851
C  C37  1  0.12750000  0.84140000  0.00000000  1.0 0.0684262534
C  C38  1  0.06160000  0.92270000  0.00000000  1.0 -0.0113274851
C  C39  1  0.41440000  0.46960000  0.22800000  0.5 0.0134244919
C  C40  1  0.40870000  0.46720000  0.30330000  0.5 -0.080219481
C  C41  1  0.58210000  0.44540000  0.45880000  0.5 -0.0747635184
C  C42  1  0.58560000  0.53040000  0.22800000  0.5 0.0134244919
C  C43  1  0.59130000  0.53280000  0.30330000  0.5 -0.080219481
C  C44  1  0.41790000  0.55460000  0.45880000  0.5 -0.080219481
C  C45  1  0.58560000  0.46960000  0.77200000  0.5 0.0134244919
C  C46  1  0.59130000  0.46720000  0.69670000  0.5 -0.080219481
C  C47  1  0.41790000  0.44540000  0.54120000  0.5 -0.080219481
C  C48  1  0.41440000  0.53040000  0.77200000  0.5 0.0134244919
C  C49  1  0.40870000  0.53280000  0.69670000  0.5 -0.080219481
C  C50  1  0.58210000  0.55460000  0.54120000  0.5 -0.0747635184
C  C51  1  0.58560000  0.53040000  0.77200000  0.5 0.0134244919
C  C52  1  0.59130000  0.53280000  0.69670000  0.5 -0.080219481
C  C53  1  0.41790000  0.55460000  0.54120000  0.5 -0.0747635184
C  C54  1  0.41440000  0.46960000  0.77200000  0.5 0.0134244919
C  C55  1  0.40870000  0.46720000  0.69670000  0.5 -0.080219481
C  C56  1  0.58210000  0.44540000  0.54120000  0.5 -0.0747635184
C  C57  1  0.41440000  0.53040000  0.22800000  0.5 0.0134244919
C  C58  1  0.40870000  0.53280000  0.30330000  0.5 -0.080219481
C  C59  1  0.58210000  0.55460000  0.45880000  0.5 -0.0747635184
C  C60  1  0.58560000  0.46960000  0.22800000  0.5 0.0134244919
C  C61  1  0.59130000  0.46720000  0.30330000  0.5 -0.080219481
C  C62  1  0.41790000  0.44540000  0.45880000  0.5 -0.080219481
Br  Br1  1  0.28798000  0.00000000  0.00000000  1.0 -0.0436346946
Br  Br2  1  0.71202000  0.00000000  0.00000000  1.0 -0.0436346946
N  N1  1  0.50000000  0.50000000  0.18990000  1.0 -0.171436709
N  N2  1  0.50000000  0.50000000  0.81010000  1.0 -0.171436709
O  O1  1  0.37560000  0.40957000  0.06063000  1.0 -0.5282353727
O  O2  1  0.62440000  0.59043000  0.06063000  1.0 -0.5282353727
O  O3  1  0.62440000  0.40957000  0.93937000  1.0 -0.5282353727
O  O4  1  0.37560000  0.59043000  0.93937000  1.0 -0.5282353727
O  O5  1  0.62440000  0.59043000  0.93937000  1.0 -0.5282353727
O  O6  1  0.37560000  0.40957000  0.93937000  1.0 -0.5282353727
O  O7  1  0.37560000  0.59043000  0.06063000  1.0 -0.5282353727
O  O8  1  0.62440000  0.40957000  0.06063000  1.0 -0.5282353727
