# DDEC6 charges by PACMAN v1.1 (https://github.com/mtap-research/PACMAN-charge/)
data_ic051810ksi20051020_012545_ASR_pacman
_symmetry_space_group_name_H-M   'P 1'
_cell_length_a   13.69290000
_cell_length_b   13.69290000
_cell_length_c   50.66400000
_cell_angle_alpha   90.00000000
_cell_angle_beta   90.00000000
_cell_angle_gamma   90.00000000
_symmetry_Int_Tables_number   1
_chemical_formula_structural   ZnH2(C3O2)2
_chemical_formula_sum   'Zn24 H48 C144 O96'
_cell_volume   9499.27253941
_cell_formula_units_Z   24
loop_
 _symmetry_equiv_pos_site_id
 _symmetry_equiv_pos_as_xyz
  1  'x, y, z'
loop_
 _atom_site_type_symbol
 _atom_site_label
 _atom_site_symmetry_multiplicity
 _atom_site_fract_x
 _atom_site_fract_y
 _atom_site_fract_z
 _atom_site_occupancy
 _atom_site_charge
Zn  Zn1  1  0.00475000  0.41549000  0.11767000  1.0 0.9147760843
Zn  Zn2  1  0.48799000  0.36198000  0.25532000  1.0 0.9289884021
Zn  Zn3  1  0.05397000  0.26897000  0.16811000  1.0 1.0153069868
Zn  Zn4  1  0.99525000  0.58451000  0.61767000  1.0 0.9147760843
Zn  Zn5  1  0.51201000  0.63802000  0.75532000  1.0 0.9289884021
Zn  Zn6  1  0.94603000  0.73103000  0.66811000  1.0 1.0153069868
Zn  Zn7  1  0.08451000  0.50475000  0.36767000  1.0 0.9162245964
Zn  Zn8  1  0.13802000  0.98799000  0.50532000  1.0 0.9289884021
Zn  Zn9  1  0.23103000  0.55397000  0.41811000  1.0 1.0142819856
Zn  Zn10  1  0.91549000  0.49525000  0.86767000  1.0 0.9162245964
Zn  Zn11  1  0.86198000  0.01201000  0.00532000  1.0 0.9289884021
Zn  Zn12  1  0.76897000  0.44603000  0.91811000  1.0 1.0153069868
Zn  Zn13  1  0.49525000  0.91549000  0.13233000  1.0 0.9162245964
Zn  Zn14  1  0.01201000  0.86198000  0.99468000  1.0 0.9289884021
Zn  Zn15  1  0.44603000  0.76897000  0.08189000  1.0 1.0153069868
Zn  Zn16  1  0.50475000  0.08451000  0.63233000  1.0 0.9162245964
Zn  Zn17  1  0.98799000  0.13802000  0.49468000  1.0 0.9289884021
Zn  Zn18  1  0.55397000  0.23103000  0.58189000  1.0 1.0153069868
Zn  Zn19  1  0.41549000  0.00475000  0.88233000  1.0 0.9162245964
Zn  Zn20  1  0.36198000  0.48799000  0.74468000  1.0 0.9289884021
Zn  Zn21  1  0.26897000  0.05397000  0.83189000  1.0 1.0153069868
Zn  Zn22  1  0.58451000  0.99525000  0.38233000  1.0 0.9162245964
Zn  Zn23  1  0.63802000  0.51201000  0.24468000  1.0 0.9289884021
Zn  Zn24  1  0.73103000  0.94603000  0.33189000  1.0 1.0142819856
H  H1  1  0.74320000  0.16380000  0.12560000  1.0 0.1235726798
H  H2  1  0.57290000  0.16310000  0.18990000  1.0 0.1235726798
H  H3  1  0.78730000  0.36080000  0.18330000  1.0 0.1316819687
H  H4  1  0.03790000  0.16040000  0.06530000  1.0 0.1316819687
H  H5  1  0.22070000  0.93860000  0.05370000  1.0 0.1235726798
H  H6  1  0.26650000  0.12550000  0.11370000  1.0 0.1316819687
H  H7  1  0.25680000  0.83620000  0.62560000  1.0 0.1235726798
H  H8  1  0.42710000  0.83690000  0.68990000  1.0 0.1235726798
H  H9  1  0.21270000  0.63920000  0.68330000  1.0 0.1316819687
H  H10  1  0.96210000  0.83960000  0.56530000  1.0 0.1316819687
H  H11  1  0.77930000  0.06140000  0.55370000  1.0 0.1235726798
H  H12  1  0.73350000  0.87450000  0.61370000  1.0 0.1316819687
H  H13  1  0.33620000  0.24320000  0.37560000  1.0 0.1235726798
H  H14  1  0.33690000  0.07290000  0.43990000  1.0 0.1235726798
H  H15  1  0.13920000  0.28730000  0.43330000  1.0 0.1316819687
H  H16  1  0.33960000  0.53790000  0.31530000  1.0 0.1316819687
H  H17  1  0.56140000  0.72070000  0.30370000  1.0 0.1235726798
H  H18  1  0.37450000  0.76650000  0.36370000  1.0 0.1316819687
H  H19  1  0.66380000  0.75680000  0.87560000  1.0 0.1235726798
H  H20  1  0.66310000  0.92710000  0.93990000  1.0 0.1235726798
H  H21  1  0.86080000  0.71270000  0.93330000  1.0 0.1316819687
H  H22  1  0.66040000  0.46210000  0.81530000  1.0 0.1316819687
H  H23  1  0.43860000  0.27930000  0.80370000  1.0 0.1235726798
H  H24  1  0.62550000  0.23350000  0.86370000  1.0 0.1316819687
H  H25  1  0.75680000  0.66380000  0.12440000  1.0 0.1235726798
H  H26  1  0.92710000  0.66310000  0.06010000  1.0 0.1235726798
H  H27  1  0.71270000  0.86080000  0.06670000  1.0 0.1316819687
H  H28  1  0.46210000  0.66040000  0.18470000  1.0 0.1316819687
H  H29  1  0.27930000  0.43860000  0.19630000  1.0 0.1235726798
H  H30  1  0.23350000  0.62550000  0.13630000  1.0 0.1316819687
H  H31  1  0.24320000  0.33620000  0.62440000  1.0 0.1235726798
H  H32  1  0.07290000  0.33690000  0.56010000  1.0 0.1235726798
H  H33  1  0.28730000  0.13920000  0.56670000  1.0 0.1316819687
H  H34  1  0.53790000  0.33960000  0.68470000  1.0 0.1316819687
H  H35  1  0.72070000  0.56140000  0.69630000  1.0 0.1235726798
H  H36  1  0.76650000  0.37450000  0.63630000  1.0 0.1316819687
H  H37  1  0.16380000  0.74320000  0.87440000  1.0 0.1235726798
H  H38  1  0.16310000  0.57290000  0.81010000  1.0 0.1235726798
H  H39  1  0.36080000  0.78730000  0.81670000  1.0 0.1316819687
H  H40  1  0.16040000  0.03790000  0.93470000  1.0 0.1316819687
H  H41  1  0.93860000  0.22070000  0.94630000  1.0 0.1235726798
H  H42  1  0.12550000  0.26650000  0.88630000  1.0 0.1316819687
H  H43  1  0.83620000  0.25680000  0.37440000  1.0 0.1235726798
H  H44  1  0.83690000  0.42710000  0.31010000  1.0 0.1235726798
H  H45  1  0.63920000  0.21270000  0.31670000  1.0 0.1316819687
H  H46  1  0.83960000  0.96210000  0.43470000  1.0 0.1316819687
H  H47  1  0.06140000  0.77930000  0.44630000  1.0 0.1235726798
H  H48  1  0.87450000  0.73350000  0.38630000  1.0 0.1316819687
C  C1  1  0.86130000  0.30800000  0.13567000  1.0 0.5642762159
C  C2  1  0.77970000  0.26610000  0.15238000  1.0 -0.0160169327
C  C3  1  0.72710000  0.18860000  0.14209000  1.0 -0.090019673
C  C4  1  0.65030000  0.14760000  0.15630000  1.0 -0.0294902538
C  C5  1  0.62370000  0.19010000  0.18017000  1.0 -0.090019673
C  C6  1  0.67140000  0.27180000  0.18966000  1.0 -0.0381760552
C  C7  1  0.75210000  0.30870000  0.17635000  1.0 -0.1029650725
C  C8  1  0.59630000  0.06280000  0.14526000  1.0 0.541827855
C  C9  1  0.63460000  0.32470000  0.21356000  1.0 0.5892543134
C  C10  1  0.11360000  0.24430000  0.10811000  1.0 0.5825398241
C  C11  1  0.14800000  0.15830000  0.09194000  1.0 -0.0294902538
C  C12  1  0.09290000  0.12550000  0.07045000  1.0 -0.090019673
C  C13  1  0.11830000  0.04390000  0.05710000  1.0 -0.0294902538
C  C14  1  0.20230000  0.99320000  0.06348000  1.0 -0.090019673
C  C15  1  0.25980000  0.02490000  0.08486000  1.0 -0.0294902538
C  C16  1  0.23040000  0.10590000  0.09911000  1.0 -0.090019673
C  C17  1  0.05400000  0.00430000  0.03460000  1.0 0.5892543134
C  C18  1  0.34860000  0.96430000  0.09239000  1.0 0.6000537922
C  C19  1  0.13870000  0.69200000  0.63567000  1.0 0.5656268571
C  C20  1  0.22030000  0.73390000  0.65238000  1.0 -0.0160169327
C  C21  1  0.27290000  0.81140000  0.64209000  1.0 -0.090019673
C  C22  1  0.34970000  0.85240000  0.65630000  1.0 -0.0294902538
C  C23  1  0.37630000  0.80990000  0.68017000  1.0 -0.090019673
C  C24  1  0.32860000  0.72820000  0.68966000  1.0 -0.0381760552
C  C25  1  0.24790000  0.69130000  0.67635000  1.0 -0.1029650725
C  C26  1  0.40370000  0.93720000  0.64526000  1.0 0.541827855
C  C27  1  0.36540000  0.67530000  0.71356000  1.0 0.5892543134
C  C28  1  0.88640000  0.75570000  0.60811000  1.0 0.5825398241
C  C29  1  0.85200000  0.84170000  0.59194000  1.0 -0.0294902538
C  C30  1  0.90710000  0.87450000  0.57045000  1.0 -0.090019673
C  C31  1  0.88170000  0.95610000  0.55710000  1.0 -0.0294902538
C  C32  1  0.79770000  0.00680000  0.56348000  1.0 -0.090019673
C  C33  1  0.74020000  0.97510000  0.58486000  1.0 -0.0294902538
C  C34  1  0.76960000  0.89410000  0.59911000  1.0 -0.090019673
C  C35  1  0.94600000  0.99570000  0.53460000  1.0 0.5892543134
C  C36  1  0.65140000  0.03570000  0.59239000  1.0 0.6000537922
C  C37  1  0.19200000  0.36130000  0.38567000  1.0 0.5656268571
C  C38  1  0.23390000  0.27970000  0.40238000  1.0 -0.0160169327
C  C39  1  0.31140000  0.22710000  0.39209000  1.0 -0.090019673
C  C40  1  0.35240000  0.15030000  0.40630000  1.0 -0.0294902538
C  C41  1  0.30990000  0.12370000  0.43017000  1.0 -0.090019673
C  C42  1  0.22820000  0.17140000  0.43966000  1.0 -0.0381760552
C  C43  1  0.19130000  0.25210000  0.42635000  1.0 -0.1029650725
C  C44  1  0.43720000  0.09630000  0.39526000  1.0 0.541827855
C  C45  1  0.17530000  0.13460000  0.46356000  1.0 0.5892543134
C  C46  1  0.25570000  0.61360000  0.35811000  1.0 0.5825398241
C  C47  1  0.34170000  0.64800000  0.34194000  1.0 -0.0294902538
C  C48  1  0.37450000  0.59290000  0.32045000  1.0 -0.090019673
C  C49  1  0.45610000  0.61830000  0.30710000  1.0 -0.0294902538
C  C50  1  0.50680000  0.70230000  0.31348000  1.0 -0.090019673
C  C51  1  0.47510000  0.75980000  0.33486000  1.0 -0.0294902538
C  C52  1  0.39410000  0.73040000  0.34911000  1.0 -0.090019673
C  C53  1  0.49570000  0.55400000  0.28460000  1.0 0.5892543134
C  C54  1  0.53570000  0.84860000  0.34239000  1.0 0.6000537922
C  C55  1  0.80800000  0.63870000  0.88567000  1.0 0.5656268571
C  C56  1  0.76610000  0.72030000  0.90238000  1.0 -0.0160169327
C  C57  1  0.68860000  0.77290000  0.89209000  1.0 -0.090019673
C  C58  1  0.64760000  0.84970000  0.90630000  1.0 -0.0294902538
C  C59  1  0.69010000  0.87630000  0.93017000  1.0 -0.090019673
C  C60  1  0.77180000  0.82860000  0.93966000  1.0 -0.0381760552
C  C61  1  0.80870000  0.74790000  0.92635000  1.0 -0.1029650725
C  C62  1  0.56280000  0.90370000  0.89526000  1.0 0.541827855
C  C63  1  0.82470000  0.86540000  0.96356000  1.0 0.5892543134
C  C64  1  0.74430000  0.38640000  0.85811000  1.0 0.5825398241
C  C65  1  0.65830000  0.35200000  0.84194000  1.0 -0.0294902538
C  C66  1  0.62550000  0.40710000  0.82045000  1.0 -0.090019673
C  C67  1  0.54390000  0.38170000  0.80710000  1.0 -0.0294902538
C  C68  1  0.49320000  0.29770000  0.81348000  1.0 -0.090019673
C  C69  1  0.52490000  0.24020000  0.83486000  1.0 -0.0294902538
C  C70  1  0.60590000  0.26960000  0.84911000  1.0 -0.0848149086
C  C71  1  0.50430000  0.44600000  0.78460000  1.0 0.5892543134
C  C72  1  0.46430000  0.15140000  0.84239000  1.0 0.6000537922
C  C73  1  0.63870000  0.80800000  0.11433000  1.0 0.5656268571
C  C74  1  0.72030000  0.76610000  0.09762000  1.0 -0.0160169327
C  C75  1  0.77290000  0.68860000  0.10791000  1.0 -0.090019673
C  C76  1  0.84970000  0.64760000  0.09370000  1.0 -0.0294902538
C  C77  1  0.87630000  0.69010000  0.06983000  1.0 -0.090019673
C  C78  1  0.82860000  0.77180000  0.06034000  1.0 -0.0381760552
C  C79  1  0.74790000  0.80870000  0.07365000  1.0 -0.1029650725
C  C80  1  0.90370000  0.56280000  0.10474000  1.0 0.541827855
C  C81  1  0.86540000  0.82470000  0.03644000  1.0 0.5892543134
C  C82  1  0.38640000  0.74430000  0.14189000  1.0 0.5825398241
C  C83  1  0.35200000  0.65830000  0.15806000  1.0 -0.0294902538
C  C84  1  0.40710000  0.62550000  0.17955000  1.0 -0.090019673
C  C85  1  0.38170000  0.54390000  0.19290000  1.0 -0.0294902538
C  C86  1  0.29770000  0.49320000  0.18652000  1.0 -0.090019673
C  C87  1  0.24020000  0.52490000  0.16514000  1.0 -0.0294902538
C  C88  1  0.26960000  0.60590000  0.15089000  1.0 -0.090019673
C  C89  1  0.44600000  0.50430000  0.21540000  1.0 0.5892543134
C  C90  1  0.15140000  0.46430000  0.15761000  1.0 0.6000537922
C  C91  1  0.36130000  0.19200000  0.61433000  1.0 0.5642762159
C  C92  1  0.27970000  0.23390000  0.59762000  1.0 -0.0160169327
C  C93  1  0.22710000  0.31140000  0.60791000  1.0 -0.090019673
C  C94  1  0.15030000  0.35240000  0.59370000  1.0 -0.0294902538
C  C95  1  0.12370000  0.30990000  0.56983000  1.0 -0.090019673
C  C96  1  0.17140000  0.22820000  0.56034000  1.0 -0.0381760552
C  C97  1  0.25210000  0.19130000  0.57365000  1.0 -0.1029650725
C  C98  1  0.09630000  0.43720000  0.60474000  1.0 0.541827855
C  C99  1  0.13460000  0.17530000  0.53644000  1.0 0.5892543134
C  C100  1  0.61360000  0.25570000  0.64189000  1.0 0.5825398241
C  C101  1  0.64800000  0.34170000  0.65806000  1.0 -0.0294902538
C  C102  1  0.59290000  0.37450000  0.67955000  1.0 -0.090019673
C  C103  1  0.61830000  0.45610000  0.69290000  1.0 -0.0294902538
C  C104  1  0.70230000  0.50680000  0.68652000  1.0 -0.090019673
C  C105  1  0.75980000  0.47510000  0.66514000  1.0 -0.0294902538
C  C106  1  0.73040000  0.39410000  0.65089000  1.0 -0.090019673
C  C107  1  0.55400000  0.49570000  0.71540000  1.0 0.5892543134
C  C108  1  0.84860000  0.53570000  0.65761000  1.0 0.6000537922
C  C109  1  0.30800000  0.86130000  0.86433000  1.0 0.5656268571
C  C110  1  0.26610000  0.77970000  0.84762000  1.0 -0.0160169327
C  C111  1  0.18860000  0.72710000  0.85791000  1.0 -0.090019673
C  C112  1  0.14760000  0.65030000  0.84370000  1.0 -0.0294902538
C  C113  1  0.19010000  0.62370000  0.81983000  1.0 -0.090019673
C  C114  1  0.27180000  0.67140000  0.81034000  1.0 -0.0381760552
C  C115  1  0.30870000  0.75210000  0.82365000  1.0 -0.1029650725
C  C116  1  0.06280000  0.59630000  0.85474000  1.0 0.541827855
C  C117  1  0.32470000  0.63460000  0.78644000  1.0 0.5892543134
C  C118  1  0.24430000  0.11360000  0.89189000  1.0 0.5825398241
C  C119  1  0.15830000  0.14800000  0.90806000  1.0 -0.0294902538
C  C120  1  0.12550000  0.09290000  0.92955000  1.0 -0.090019673
C  C121  1  0.04390000  0.11830000  0.94290000  1.0 -0.0294902538
C  C122  1  0.99320000  0.20230000  0.93652000  1.0 -0.090019673
C  C123  1  0.02490000  0.25980000  0.91514000  1.0 -0.0294902538
C  C124  1  0.10590000  0.23040000  0.90089000  1.0 -0.0848149086
C  C125  1  0.00430000  0.05400000  0.96540000  1.0 0.5892543134
C  C126  1  0.96430000  0.34860000  0.90761000  1.0 0.6000537922
C  C127  1  0.69200000  0.13870000  0.36433000  1.0 0.5656268571
C  C128  1  0.73390000  0.22030000  0.34762000  1.0 -0.0160169327
C  C129  1  0.81140000  0.27290000  0.35791000  1.0 -0.090019673
C  C130  1  0.85240000  0.34970000  0.34370000  1.0 -0.0294902538
C  C131  1  0.80990000  0.37630000  0.31983000  1.0 -0.090019673
C  C132  1  0.72820000  0.32860000  0.31034000  1.0 -0.0381760552
C  C133  1  0.69130000  0.24790000  0.32365000  1.0 -0.1029650725
C  C134  1  0.93720000  0.40370000  0.35474000  1.0 0.541827855
C  C135  1  0.67530000  0.36540000  0.28644000  1.0 0.5892543134
C  C136  1  0.75570000  0.88640000  0.39189000  1.0 0.5825398241
C  C137  1  0.84170000  0.85200000  0.40806000  1.0 -0.0294902538
C  C138  1  0.87450000  0.90710000  0.42955000  1.0 -0.090019673
C  C139  1  0.95610000  0.88170000  0.44290000  1.0 -0.0294902538
C  C140  1  0.00680000  0.79770000  0.43652000  1.0 -0.090019673
C  C141  1  0.97510000  0.74020000  0.41514000  1.0 -0.0294902538
C  C142  1  0.89410000  0.76960000  0.40089000  1.0 -0.0848149086
C  C143  1  0.99570000  0.94600000  0.46540000  1.0 0.5892543134
C  C144  1  0.03570000  0.65140000  0.40761000  1.0 0.6000537922
O  O1  1  0.93860000  0.34100000  0.14751000  1.0 -0.6176998715
O  O2  1  0.85290000  0.31340000  0.11174000  1.0 -0.4437193776
O  O3  1  0.67890000  0.39990000  0.22024000  1.0 -0.5361593391
O  O4  1  0.55840000  0.29180000  0.22468000  1.0 -0.5320682466
O  O5  1  0.61470000  0.03840000  0.12197000  1.0 -0.5024158017
O  O6  1  0.53680000  0.01770000  0.15941000  1.0 -0.5068264927
O  O7  1  0.07060000  0.31090000  0.09653000  1.0 -0.5024158017
O  O8  1  0.13150000  0.24020000  0.13250000  1.0 -0.5903094883
O  O9  1  0.97280000  0.04280000  0.03175000  1.0 -0.5320682466
O  O10  1  0.08690000  0.93420000  0.02201000  1.0 -0.5233045171
O  O11  1  0.38520000  0.98520000  0.11498000  1.0 -0.5498636241
O  O12  1  0.37530000  0.89970000  0.07741000  1.0 -0.5361593391
O  O13  1  0.06140000  0.65900000  0.64751000  1.0 -0.6176998715
O  O14  1  0.14710000  0.68660000  0.61174000  1.0 -0.4492971823
O  O15  1  0.32110000  0.60010000  0.72024000  1.0 -0.5320682466
O  O16  1  0.44160000  0.70820000  0.72468000  1.0 -0.5320682466
O  O17  1  0.38530000  0.96160000  0.62197000  1.0 -0.5024158017
O  O18  1  0.46320000  0.98230000  0.65941000  1.0 -0.5068264927
O  O19  1  0.92940000  0.68910000  0.59653000  1.0 -0.5024158017
O  O20  1  0.86850000  0.75980000  0.63250000  1.0 -0.5903094883
O  O21  1  0.02720000  0.95720000  0.53175000  1.0 -0.5320682466
O  O22  1  0.91310000  0.06580000  0.52201000  1.0 -0.5233045171
O  O23  1  0.61480000  0.01480000  0.61498000  1.0 -0.5498636241
O  O24  1  0.62470000  0.10030000  0.57741000  1.0 -0.5320682466
O  O25  1  0.15900000  0.43860000  0.39751000  1.0 -0.6176998715
O  O26  1  0.18660000  0.35290000  0.36174000  1.0 -0.4437193776
O  O27  1  0.10010000  0.17890000  0.47024000  1.0 -0.5320682466
O  O28  1  0.20820000  0.05840000  0.47468000  1.0 -0.5320682466
O  O29  1  0.46160000  0.11470000  0.37197000  1.0 -0.5024158017
O  O30  1  0.48230000  0.03680000  0.40941000  1.0 -0.5068264927
O  O31  1  0.18910000  0.57060000  0.34653000  1.0 -0.5024158017
O  O32  1  0.25980000  0.63150000  0.38250000  1.0 -0.5903094883
O  O33  1  0.45720000  0.47280000  0.28175000  1.0 -0.5320682466
O  O34  1  0.56580000  0.58690000  0.27201000  1.0 -0.5233045171
O  O35  1  0.51480000  0.88520000  0.36498000  1.0 -0.5498636241
O  O36  1  0.60030000  0.87530000  0.32741000  1.0 -0.5320682466
O  O37  1  0.84100000  0.56140000  0.89751000  1.0 -0.6176998715
O  O38  1  0.81340000  0.64710000  0.86174000  1.0 -0.4437193776
O  O39  1  0.89990000  0.82110000  0.97024000  1.0 -0.5320682466
O  O40  1  0.79180000  0.94160000  0.97468000  1.0 -0.5320682466
O  O41  1  0.53840000  0.88530000  0.87197000  1.0 -0.5024158017
O  O42  1  0.51770000  0.96320000  0.90941000  1.0 -0.5068264927
O  O43  1  0.81090000  0.42940000  0.84653000  1.0 -0.5068264927
O  O44  1  0.74020000  0.36850000  0.88250000  1.0 -0.5903094883
O  O45  1  0.54280000  0.52720000  0.78175000  1.0 -0.5320682466
O  O46  1  0.43420000  0.41310000  0.77201000  1.0 -0.5233045171
O  O47  1  0.48520000  0.11480000  0.86498000  1.0 -0.5498636241
O  O48  1  0.39970000  0.12470000  0.82741000  1.0 -0.5320682466
O  O49  1  0.56140000  0.84100000  0.10249000  1.0 -0.6176998715
O  O50  1  0.64710000  0.81340000  0.13826000  1.0 -0.4492971823
O  O51  1  0.82110000  0.89990000  0.02976000  1.0 -0.5361593391
O  O52  1  0.94160000  0.79180000  0.02532000  1.0 -0.5320682466
O  O53  1  0.88530000  0.53840000  0.12803000  1.0 -0.5024158017
O  O54  1  0.96320000  0.51770000  0.09059000  1.0 -0.5068264927
O  O55  1  0.42940000  0.81090000  0.15347000  1.0 -0.5024158017
O  O56  1  0.36850000  0.74020000  0.11750000  1.0 -0.5903094883
O  O57  1  0.52720000  0.54280000  0.21825000  1.0 -0.5320682466
O  O58  1  0.41310000  0.43420000  0.22799000  1.0 -0.5233045171
O  O59  1  0.11480000  0.48520000  0.13502000  1.0 -0.5498636241
O  O60  1  0.12470000  0.39970000  0.17259000  1.0 -0.5320682466
O  O61  1  0.43860000  0.15900000  0.60249000  1.0 -0.6176998715
O  O62  1  0.35290000  0.18660000  0.63826000  1.0 -0.4437193776
O  O63  1  0.17890000  0.10010000  0.52976000  1.0 -0.5320682466
O  O64  1  0.05840000  0.20820000  0.52532000  1.0 -0.5320682466
O  O65  1  0.11470000  0.46160000  0.62803000  1.0 -0.5024158017
O  O66  1  0.03680000  0.48230000  0.59059000  1.0 -0.5068264927
O  O67  1  0.57060000  0.18910000  0.65347000  1.0 -0.5024158017
O  O68  1  0.63150000  0.25980000  0.61750000  1.0 -0.5903094883
O  O69  1  0.47280000  0.45720000  0.71825000  1.0 -0.5320682466
O  O70  1  0.58690000  0.56580000  0.72799000  1.0 -0.5233045171
O  O71  1  0.88520000  0.51480000  0.63502000  1.0 -0.5498636241
O  O72  1  0.87530000  0.60030000  0.67259000  1.0 -0.5320682466
O  O73  1  0.34100000  0.93860000  0.85249000  1.0 -0.6176998715
O  O74  1  0.31340000  0.85290000  0.88826000  1.0 -0.4437193776
O  O75  1  0.39990000  0.67890000  0.77976000  1.0 -0.5320682466
O  O76  1  0.29180000  0.55840000  0.77532000  1.0 -0.5320682466
O  O77  1  0.03840000  0.61470000  0.87803000  1.0 -0.5024158017
O  O78  1  0.01770000  0.53680000  0.84059000  1.0 -0.5068264927
O  O79  1  0.31090000  0.07060000  0.90347000  1.0 -0.5068264927
O  O80  1  0.24020000  0.13150000  0.86750000  1.0 -0.5903094883
O  O81  1  0.04280000  0.97280000  0.96825000  1.0 -0.5320682466
O  O82  1  0.93420000  0.08690000  0.97799000  1.0 -0.5233045171
O  O83  1  0.98520000  0.38520000  0.88502000  1.0 -0.5498636241
O  O84  1  0.89970000  0.37530000  0.92259000  1.0 -0.5320682466
O  O85  1  0.65900000  0.06140000  0.35249000  1.0 -0.6176998715
O  O86  1  0.68660000  0.14710000  0.38826000  1.0 -0.4492971823
O  O87  1  0.60010000  0.32110000  0.27976000  1.0 -0.5320682466
O  O88  1  0.70820000  0.44160000  0.27532000  1.0 -0.5320682466
O  O89  1  0.96160000  0.38530000  0.37803000  1.0 -0.5024158017
O  O90  1  0.98230000  0.46320000  0.34059000  1.0 -0.5068264927
O  O91  1  0.68910000  0.92940000  0.40347000  1.0 -0.5068264927
O  O92  1  0.75980000  0.86850000  0.36750000  1.0 -0.5903094883
O  O93  1  0.95720000  0.02720000  0.46825000  1.0 -0.5320682466
O  O94  1  0.06580000  0.91310000  0.47799000  1.0 -0.5233045171
O  O95  1  0.01480000  0.61480000  0.38502000  1.0 -0.5498636241
O  O96  1  0.10030000  0.62470000  0.42259000  1.0 -0.5361593391
