# DDEC6 charges by PACMAN v1.1 (https://github.com/mtap-research/PACMAN-charge/)
data_2021[Zn][nan]3[ASR]6
_chemical_formula_sum              "Zn16 P16 H32 C48 S8 O80"
_cell_length_a       9.9053
_cell_length_b       19.5786
_cell_length_c       29.0287
_cell_angle_alpha    90
_cell_angle_beta     90
_cell_angle_gamma    90

_symmetry_space_group_name_H-M    "P 1"
_symmetry_Int_Tables_number       1

loop_
  _symmetry_equiv_pos_as_xyz
  'x, y, z'

loop_
  _atom_site_type_symbol
  _atom_site_label
  _atom_site_symmetry_multiplicity
  _atom_site_fract_x
  _atom_site_fract_y
  _atom_site_fract_z
  _atom_site_occupancy
  _atom_site_charge
Zn  Zn1       1.0  0.21638  0.07183  0.31318  1.0000 1.0690412291
Zn  Zn2       1.0  0.37053  0.15619  0.14405  1.0000 1.0690412291
Zn  Zn3       1.0  0.21638  0.42817  0.18682  1.0000 1.0690412291
Zn  Zn4       1.0  0.37053  0.34381  0.35595  1.0000 1.0690412291
Zn  Zn5       1.0  0.28362  0.92817  0.81318  1.0000 1.0690412291
Zn  Zn6       1.0  0.12947  0.84381  0.64405  1.0000 1.0690412291
Zn  Zn7       1.0  0.28362  0.57183  0.68682  1.0000 1.0690412291
Zn  Zn8       1.0  0.12947  0.65619  0.85595  1.0000 1.0690412291
Zn  Zn9       1.0  0.78362  0.92817  0.68682  1.0000 1.0690412291
Zn  Zn10      1.0  0.62947  0.84381  0.85595  1.0000 1.0690412291
Zn  Zn11      1.0  0.78362  0.57183  0.81318  1.0000 1.0690412291
Zn  Zn12      1.0  0.62947  0.65619  0.64405  1.0000 1.0690412291
Zn  Zn13      1.0  0.71638  0.07183  0.18682  1.0000 1.0690412291
Zn  Zn14      1.0  0.87053  0.15619  0.35595  1.0000 1.0690412291
Zn  Zn15      1.0  0.71638  0.42817  0.31318  1.0000 1.0690412291
Zn  Zn16      1.0  0.87053  0.34381  0.14405  1.0000 1.0690412291
P   P1        1.0  0.43276  0.09507  0.23871  1.0000 1.10045655
P   P2        1.0  0.16022  0.22694  0.33226  1.0000 1.10045655
P   P3        1.0  0.43276  0.40493  0.26129  1.0000 1.10045655
P   P4        1.0  0.16022  0.27306  0.16774  1.0000 1.10045655
P   P5        1.0  0.06724  0.90493  0.73871  1.0000 1.10045655
P   P6        1.0  0.33978  0.77306  0.83226  1.0000 1.10045655
P   P7        1.0  0.06724  0.59507  0.76129  1.0000 1.10045655
P   P8        1.0  0.33978  0.72694  0.66774  1.0000 1.10045655
P   P9        1.0  0.56724  0.90493  0.76129  1.0000 1.10045655
P   P10       1.0  0.83978  0.77306  0.66774  1.0000 1.10045655
P   P11       1.0  0.56724  0.59507  0.73871  1.0000 1.10045655
P   P12       1.0  0.83978  0.72694  0.83226  1.0000 1.10045655
P   P13       1.0  0.93276  0.09507  0.26129  1.0000 1.10045655
P   P14       1.0  0.66022  0.22694  0.16774  1.0000 1.10045655
P   P15       1.0  0.93276  0.40493  0.23871  1.0000 1.10045655
P   P16       1.0  0.66022  0.27306  0.33226  1.0000 1.10045655
H   H1        1.0  0.43420  0.15880  0.24900  1.0000 -0.0800203548
H   H2        1.0  0.16310  0.23700  0.28830  1.0000 -0.0800203548
H   H3        1.0  0.01180  0.94360  0.42160  1.0000 0.1590207268
H   H4        1.0  0.98310  0.90220  0.50000  1.0000 0.1590207268
H   H5        1.0  0.43420  0.34120  0.25100  1.0000 -0.0800203548
H   H6        1.0  0.16310  0.26300  0.21170  1.0000 -0.0800203548
H   H7        1.0  0.01180  0.55640  0.07840  1.0000 0.1590207268
H   H8        1.0  0.98310  0.59780  0.00000  1.0000 0.1590207268
H   H9        1.0  0.06580  0.84120  0.74900  1.0000 -0.0800203548
H   H10       1.0  0.33690  0.76300  0.78830  1.0000 -0.0800203548
H   H11       1.0  0.48820  0.05640  0.92160  1.0000 0.1590207268
H   H12       1.0  0.51690  0.09780  0.00000  1.0000 0.1590207268
H   H13       1.0  0.06580  0.65880  0.75100  1.0000 -0.0800203548
H   H14       1.0  0.33690  0.73700  0.71170  1.0000 -0.0800203548
H   H15       1.0  0.48820  0.44360  0.57840  1.0000 0.1590207268
H   H16       1.0  0.51690  0.40220  0.50000  1.0000 0.1590207268
H   H17       1.0  0.56580  0.84120  0.75100  1.0000 -0.0800203548
H   H18       1.0  0.83690  0.76300  0.71170  1.0000 -0.0800203548
H   H19       1.0  0.98820  0.05640  0.57840  1.0000 0.1590207268
H   H20       1.0  0.01690  0.09780  0.50000  1.0000 0.1590207268
H   H21       1.0  0.56580  0.65880  0.74900  1.0000 -0.0800203548
H   H22       1.0  0.83690  0.73700  0.78830  1.0000 -0.0800203548
H   H23       1.0  0.98820  0.44360  0.92160  1.0000 0.1590207268
H   H24       1.0  0.01690  0.40220  0.00000  1.0000 0.1590207268
H   H25       1.0  0.93420  0.15880  0.25100  1.0000 -0.0800203548
H   H26       1.0  0.66310  0.23700  0.21170  1.0000 -0.0800203548
H   H27       1.0  0.51180  0.94360  0.07840  1.0000 0.1590207268
H   H28       1.0  0.48310  0.90220  0.00000  1.0000 0.1590207268
H   H29       1.0  0.93420  0.34120  0.24900  1.0000 -0.0800203548
H   H30       1.0  0.66310  0.26300  0.28830  1.0000 -0.0800203548
H   H31       1.0  0.51180  0.55640  0.42160  1.0000 0.1590207268
H   H32       1.0  0.48310  0.59780  0.50000  1.0000 0.1590207268
C   C1        1.0  0.25860  0.00170  0.39347  1.0000 0.5627336197
C   C2        1.0  0.20560  0.96970  0.43591  1.0000 -0.06906463
C   C3        1.0  0.07960  0.94470  0.44372  1.0000 -0.0894190916
C   C4        1.0  0.06330  0.92070  0.48893  1.0000 -0.0894190916
C   C5        1.0  0.17650  0.92710  0.51474  1.0000 -0.06906463
C   C6        1.0  0.19500  0.90900  0.56423  1.0000 0.5627336197
C   C7        1.0  0.25860  0.49830  0.10653  1.0000 0.5627336197
C   C8        1.0  0.20560  0.53030  0.06409  1.0000 -0.06906463
C   C9        1.0  0.07960  0.55530  0.05628  1.0000 -0.0894190916
C   C10       1.0  0.06330  0.57930  0.01107  1.0000 -0.0894190916
C   C11       1.0  0.17650  0.57290  0.98526  1.0000 -0.06906463
C   C12       1.0  0.19500  0.59100  0.93577  1.0000 0.5627336197
C   C13       1.0  0.24140  0.99830  0.89347  1.0000 0.5627336197
C   C14       1.0  0.29440  0.03030  0.93591  1.0000 -0.06906463
C   C15       1.0  0.42040  0.05530  0.94372  1.0000 -0.0894190916
C   C16       1.0  0.43670  0.07930  0.98893  1.0000 -0.0954889364
C   C17       1.0  0.32350  0.07290  0.01474  1.0000 -0.06906463
C   C18       1.0  0.30500  0.09100  0.06423  1.0000 0.5627336197
C   C19       1.0  0.24140  0.50170  0.60653  1.0000 0.5627336197
C   C20       1.0  0.29440  0.46970  0.56409  1.0000 -0.06906463
C   C21       1.0  0.42040  0.44470  0.55628  1.0000 -0.0894190916
C   C22       1.0  0.43670  0.42070  0.51107  1.0000 -0.0894190916
C   C23       1.0  0.32350  0.42710  0.48526  1.0000 -0.06906463
C   C24       1.0  0.30500  0.40900  0.43577  1.0000 0.5627336197
C   C25       1.0  0.74140  0.99830  0.60653  1.0000 0.5627336197
C   C26       1.0  0.79440  0.03030  0.56409  1.0000 -0.06906463
C   C27       1.0  0.92040  0.05530  0.55628  1.0000 -0.0894190916
C   C28       1.0  0.93670  0.07930  0.51107  1.0000 -0.0894190916
C   C29       1.0  0.82350  0.07290  0.48526  1.0000 -0.06906463
C   C30       1.0  0.80500  0.09100  0.43577  1.0000 0.5627336197
C   C31       1.0  0.74140  0.50170  0.89347  1.0000 0.5627336197
C   C32       1.0  0.79440  0.46970  0.93591  1.0000 -0.06906463
C   C33       1.0  0.92040  0.44470  0.94372  1.0000 -0.0894190916
C   C34       1.0  0.93670  0.42070  0.98893  1.0000 -0.0954889364
C   C35       1.0  0.82350  0.42710  0.01474  1.0000 -0.06906463
C   C36       1.0  0.80500  0.40900  0.06423  1.0000 0.5627336197
C   C37       1.0  0.75860  0.00170  0.10653  1.0000 0.5627336197
C   C38       1.0  0.70560  0.96970  0.06409  1.0000 -0.06906463
C   C39       1.0  0.57960  0.94470  0.05628  1.0000 -0.0894190916
C   C40       1.0  0.56330  0.92070  0.01107  1.0000 -0.0894190916
C   C41       1.0  0.67650  0.92710  0.98526  1.0000 -0.06906463
C   C42       1.0  0.69500  0.90900  0.93577  1.0000 0.5627336197
C   C43       1.0  0.75860  0.49830  0.39347  1.0000 0.5627336197
C   C44       1.0  0.70560  0.53030  0.43591  1.0000 -0.06906463
C   C45       1.0  0.57960  0.55530  0.44372  1.0000 -0.0894190916
C   C46       1.0  0.56330  0.57930  0.48893  1.0000 -0.0894190916
C   C47       1.0  0.67650  0.57290  0.51474  1.0000 -0.06906463
C   C48       1.0  0.69500  0.59100  0.56423  1.0000 0.5627336197
S   S1        1.0  0.30537  0.96299  0.48414  1.0000 0.2059759086
S   S2        1.0  0.30537  0.53701  0.01586  1.0000 0.2059759086
S   S3        1.0  0.19463  0.03701  0.98414  1.0000 0.2059759086
S   S4        1.0  0.19463  0.46299  0.51586  1.0000 0.2059759086
S   S5        1.0  0.69463  0.03701  0.51586  1.0000 0.2059759086
S   S6        1.0  0.69463  0.46299  0.98414  1.0000 0.2059759086
S   S7        1.0  0.80537  0.96299  0.01586  1.0000 0.2040923678
S   S8        1.0  0.80537  0.53701  0.48414  1.0000 0.2059759086
O   O1        1.0  0.57830  0.07770  0.23334  1.0000 -0.6395840838
O   O2        1.0  0.35130  0.09154  0.19472  1.0000 -0.6498873986
O   O3        1.0  0.37420  0.05084  0.27698  1.0000 -0.5968728023
O   O4        1.0  0.23840  0.16233  0.34135  1.0000 -0.6578726328
O   O5        1.0  0.21110  0.28553  0.36112  1.0000 -0.5946927142
O   O6        1.0  0.01140  0.21979  0.33857  1.0000 -0.6395840838
O   O7        1.0  0.37720  0.02220  0.39195  1.0000 -0.3926645971
O   O8        1.0  0.17350  0.00700  0.36091  1.0000 -0.4804944776
O   O9        1.0  0.30090  0.92307  0.58386  1.0000 -0.3772993244
O   O10       1.0  0.09410  0.87744  0.58269  1.0000 -0.4804944776
O   O11       1.0  0.57830  0.42230  0.26666  1.0000 -0.6395840838
O   O12       1.0  0.35130  0.40846  0.30528  1.0000 -0.6498873986
O   O13       1.0  0.37420  0.44916  0.22302  1.0000 -0.5968728023
O   O14       1.0  0.23840  0.33767  0.15865  1.0000 -0.6578726328
O   O15       1.0  0.21110  0.21447  0.13888  1.0000 -0.5946927142
O   O16       1.0  0.01140  0.28021  0.16143  1.0000 -0.6395840838
O   O17       1.0  0.37720  0.47780  0.10805  1.0000 -0.3926645971
O   O18       1.0  0.17350  0.49300  0.13909  1.0000 -0.4804944776
O   O19       1.0  0.30090  0.57693  0.91614  1.0000 -0.3772993244
O   O20       1.0  0.09410  0.62256  0.91731  1.0000 -0.4804944776
O   O21       1.0  0.92170  0.92230  0.73334  1.0000 -0.6395840838
O   O22       1.0  0.14870  0.90846  0.69472  1.0000 -0.6498873986
O   O23       1.0  0.12580  0.94916  0.77698  1.0000 -0.5968728023
O   O24       1.0  0.26160  0.83767  0.84135  1.0000 -0.6578726328
O   O25       1.0  0.28890  0.71447  0.86112  1.0000 -0.5968728023
O   O26       1.0  0.48860  0.78021  0.83857  1.0000 -0.6395840838
O   O27       1.0  0.12280  0.97780  0.89195  1.0000 -0.3926645971
O   O28       1.0  0.32650  0.99300  0.86091  1.0000 -0.4804944776
O   O29       1.0  0.19910  0.07693  0.08386  1.0000 -0.3772993244
O   O30       1.0  0.40590  0.12256  0.08269  1.0000 -0.4804944776
O   O31       1.0  0.92170  0.57770  0.76666  1.0000 -0.6395840838
O   O32       1.0  0.14870  0.59154  0.80528  1.0000 -0.6498873986
O   O33       1.0  0.12580  0.55084  0.72302  1.0000 -0.5968728023
O   O34       1.0  0.26160  0.66233  0.65865  1.0000 -0.6578726328
O   O35       1.0  0.28890  0.78553  0.63888  1.0000 -0.5946927142
O   O36       1.0  0.48860  0.71979  0.66143  1.0000 -0.6395840838
O   O37       1.0  0.12280  0.52220  0.60805  1.0000 -0.3926645971
O   O38       1.0  0.32650  0.50700  0.63909  1.0000 -0.4804944776
O   O39       1.0  0.19910  0.42307  0.41614  1.0000 -0.3772993244
O   O40       1.0  0.40590  0.37744  0.41731  1.0000 -0.4804944776
O   O41       1.0  0.42170  0.92230  0.76666  1.0000 -0.6395840838
O   O42       1.0  0.64870  0.90846  0.80528  1.0000 -0.6498873986
O   O43       1.0  0.62580  0.94916  0.72302  1.0000 -0.5968728023
O   O44       1.0  0.76160  0.83767  0.65865  1.0000 -0.6578726328
O   O45       1.0  0.78890  0.71447  0.63888  1.0000 -0.5946927142
O   O46       1.0  0.98860  0.78021  0.66143  1.0000 -0.6395840838
O   O47       1.0  0.62280  0.97780  0.60805  1.0000 -0.3926645971
O   O48       1.0  0.82650  0.99300  0.63909  1.0000 -0.4804944776
O   O49       1.0  0.69910  0.07693  0.41614  1.0000 -0.3772993244
O   O50       1.0  0.90590  0.12256  0.41731  1.0000 -0.4804944776
O   O51       1.0  0.42170  0.57770  0.73334  1.0000 -0.6395840838
O   O52       1.0  0.64870  0.59154  0.69472  1.0000 -0.6498873986
O   O53       1.0  0.62580  0.55084  0.77698  1.0000 -0.5968728023
O   O54       1.0  0.76160  0.66233  0.84135  1.0000 -0.6578726328
O   O55       1.0  0.78890  0.78553  0.86112  1.0000 -0.5946927142
O   O56       1.0  0.98860  0.71979  0.83857  1.0000 -0.6395840838
O   O57       1.0  0.62280  0.52220  0.89195  1.0000 -0.3926645971
O   O58       1.0  0.82650  0.50700  0.86091  1.0000 -0.4804944776
O   O59       1.0  0.69910  0.42307  0.08386  1.0000 -0.3772993244
O   O60       1.0  0.90590  0.37744  0.08269  1.0000 -0.4804944776
O   O61       1.0  0.07830  0.07770  0.26666  1.0000 -0.6395840838
O   O62       1.0  0.85130  0.09154  0.30528  1.0000 -0.6498873986
O   O63       1.0  0.87420  0.05084  0.22302  1.0000 -0.5968728023
O   O64       1.0  0.73840  0.16233  0.15865  1.0000 -0.6578726328
O   O65       1.0  0.71110  0.28553  0.13888  1.0000 -0.5946927142
O   O66       1.0  0.51140  0.21979  0.16143  1.0000 -0.6395840838
O   O67       1.0  0.87720  0.02220  0.10805  1.0000 -0.3926645971
O   O68       1.0  0.67350  0.00700  0.13909  1.0000 -0.4804944776
O   O69       1.0  0.80090  0.92307  0.91614  1.0000 -0.3772993244
O   O70       1.0  0.59410  0.87744  0.91731  1.0000 -0.4804944776
O   O71       1.0  0.07830  0.42230  0.23334  1.0000 -0.6395840838
O   O72       1.0  0.85130  0.40846  0.19472  1.0000 -0.6498873986
O   O73       1.0  0.87420  0.44916  0.27698  1.0000 -0.5968728023
O   O74       1.0  0.73840  0.33767  0.34135  1.0000 -0.6578726328
O   O75       1.0  0.71110  0.21447  0.36112  1.0000 -0.5946927142
O   O76       1.0  0.51140  0.28021  0.33857  1.0000 -0.6395840838
O   O77       1.0  0.87720  0.47780  0.39195  1.0000 -0.3926645971
O   O78       1.0  0.67350  0.49300  0.36091  1.0000 -0.4804944776
O   O79       1.0  0.80090  0.57693  0.58386  1.0000 -0.3772993244
O   O80       1.0  0.59410  0.62256  0.58269  1.0000 -0.4804944776
