# DDEC6 charges by PACMAN v1.1 (https://github.com/mtap-research/PACMAN-charge/)
data_10876_2019_1615_MOESM1_ESM_FSR_pacman
_symmetry_space_group_name_H-M   'P 1'
_cell_length_a   12.55660000
_cell_length_b   14.87100000
_cell_length_c   22.85440000
_cell_angle_alpha   90.00000000
_cell_angle_beta   90.00000000
_cell_angle_gamma   90.00000000
_symmetry_Int_Tables_number   1
_chemical_formula_structural   Zn2H6C16N2O11
_chemical_formula_sum   'Zn8 H24 C64 N8 O44'
_cell_volume   4267.58379648
_cell_formula_units_Z   4
loop_
 _symmetry_equiv_pos_site_id
 _symmetry_equiv_pos_as_xyz
  1  'x, y, z'
loop_
 _atom_site_type_symbol
 _atom_site_label
 _atom_site_symmetry_multiplicity
 _atom_site_fract_x
 _atom_site_fract_y
 _atom_site_fract_z
 _atom_site_occupancy
 _atom_site_charge
Zn  Zn1  1  0.46010000  0.36091000  0.61474000  1.0 1.3037303505
Zn  Zn2  1  0.35161000  0.24064000  0.49778000  1.0 0.9514930067
Zn  Zn3  1  0.96010000  0.63909000  0.38526000  1.0 1.3037303505
Zn  Zn4  1  0.85161000  0.75936000  0.50222000  1.0 0.9514930067
Zn  Zn5  1  0.46010000  0.13909000  0.11474000  1.0 1.3037303505
Zn  Zn6  1  0.35161000  0.25936000  0.99778000  1.0 0.9514930067
Zn  Zn7  1  0.96010000  0.86091000  0.88526000  1.0 1.3037303505
Zn  Zn8  1  0.85161000  0.74064000  0.00222000  1.0 0.9514930067
H  H1  1  0.21156000  0.11530000  0.34208000  1.0 0.1488334058
H  H2  1  0.08309000  0.97889000  0.47518000  1.0 0.1488334058
H  H3  1  0.63742000  0.50747000  0.49888000  1.0 0.1557502938
H  H4  1  0.02981000  0.62547000  0.64091000  1.0 0.1488334058
H  H5  1  0.21639000  0.40948000  0.66269000  1.0 0.1488334058
H  H6  1  0.05045000  0.61170000  0.81017000  1.0 0.1488334058
H  H7  1  0.71156000  0.88470000  0.65792000  1.0 0.1488334058
H  H8  1  0.58309000  0.02111000  0.52482000  1.0 0.1488334058
H  H9  1  0.13742000  0.49253000  0.50112000  1.0 0.1557502938
H  H10  1  0.52981000  0.37453000  0.35909000  1.0 0.1488334058
H  H11  1  0.71639000  0.59052000  0.33731000  1.0 0.1488334058
H  H12  1  0.55045000  0.38830000  0.18983000  1.0 0.1488334058
H  H13  1  0.21156000  0.38470000  0.84208000  1.0 0.1488334058
H  H14  1  0.08309000  0.52111000  0.97518000  1.0 0.1488334058
H  H15  1  0.63742000  0.99253000  0.99888000  1.0 0.1557502938
H  H16  1  0.02981000  0.87453000  0.14091000  1.0 0.1488334058
H  H17  1  0.21639000  0.09052000  0.16269000  1.0 0.1488334058
H  H18  1  0.05045000  0.88830000  0.31017000  1.0 0.1488334058
H  H19  1  0.71156000  0.61530000  0.15792000  1.0 0.1488334058
H  H20  1  0.58309000  0.47889000  0.02482000  1.0 0.1488334058
H  H21  1  0.13742000  0.00747000  0.00112000  1.0 0.1557502938
H  H22  1  0.52981000  0.12547000  0.85909000  1.0 0.1488334058
H  H23  1  0.71639000  0.90948000  0.83731000  1.0 0.1488334058
H  H24  1  0.55045000  0.11170000  0.68983000  1.0 0.1488334058
C  C1  1  0.20870000  0.12250000  0.45690000  1.0 0.5617982713
C  C2  1  0.11940000  0.51740000  0.66130000  1.0 0.1325276145
C  C3  1  0.17240000  0.06660000  0.35580000  1.0 -0.1129151689
C  C4  1  0.18700000  0.43790000  0.57780000  1.0 -0.0042299041
C  C5  1  0.09760000  0.98400000  0.43540000  1.0 -0.0582191548
C  C6  1  0.63310000  0.50100000  0.45850000  1.0 -0.0582191548
C  C7  1  0.06830000  0.57810000  0.62480000  1.0 -0.118390546
C  C8  1  0.55980000  0.08010000  0.60360000  1.0 0.0189400295
C  C9  1  0.25050000  0.36360000  0.55080000  1.0 0.5847623167
C  C10  1  0.57400000  0.43140000  0.43530000  1.0 0.008447303
C  C11  1  0.18010000  0.44860000  0.63800000  1.0 -0.118390546
C  C12  1  0.12980000  0.49460000  0.81590000  1.0 0.1488334058
C  C13  1  0.50030000  0.16170000  0.58280000  1.0 0.6168816207
C  C14  1  0.51020000  0.37110000  0.47530000  1.0 0.5943780956
C  C15  1  0.07600000  0.56890000  0.83630000  1.0 -0.118390546
C  C16  1  0.15760000  0.05610000  0.41440000  1.0 0.0189400295
C  C17  1  0.70870000  0.87750000  0.54310000  1.0 0.5617982713
C  C18  1  0.61940000  0.48260000  0.33870000  1.0 0.1325276145
C  C19  1  0.67240000  0.93340000  0.64420000  1.0 -0.1129151689
C  C20  1  0.68700000  0.56210000  0.42220000  1.0 -0.0042299041
C  C21  1  0.59760000  0.01600000  0.56460000  1.0 -0.0582191548
C  C22  1  0.13310000  0.49900000  0.54150000  1.0 -0.0582191548
C  C23  1  0.56830000  0.42190000  0.37520000  1.0 -0.118390546
C  C24  1  0.05980000  0.91990000  0.39640000  1.0 0.0189400295
C  C25  1  0.75050000  0.63640000  0.44920000  1.0 0.5847623167
C  C26  1  0.07400000  0.56860000  0.56470000  1.0 0.008447303
C  C27  1  0.68010000  0.55140000  0.36200000  1.0 -0.118390546
C  C28  1  0.62980000  0.50540000  0.18410000  1.0 0.1488334058
C  C29  1  0.00030000  0.83830000  0.41720000  1.0 0.6168816207
C  C30  1  0.01020000  0.62890000  0.52470000  1.0 0.5943780956
C  C31  1  0.57600000  0.43110000  0.16370000  1.0 -0.118390546
C  C32  1  0.65760000  0.94390000  0.58560000  1.0 0.0189400295
C  C33  1  0.20870000  0.37750000  0.95690000  1.0 0.5617982713
C  C34  1  0.11940000  0.98260000  0.16130000  1.0 0.1325276145
C  C35  1  0.17240000  0.43340000  0.85580000  1.0 -0.1129151689
C  C36  1  0.18700000  0.06210000  0.07780000  1.0 -0.0042299041
C  C37  1  0.09760000  0.51600000  0.93540000  1.0 -0.0582191548
C  C38  1  0.63310000  0.99900000  0.95850000  1.0 -0.0582191548
C  C39  1  0.06830000  0.92190000  0.12480000  1.0 -0.118390546
C  C40  1  0.55980000  0.41990000  0.10360000  1.0 0.0189400295
C  C41  1  0.25050000  0.13640000  0.05080000  1.0 0.5847623167
C  C42  1  0.57400000  0.06860000  0.93530000  1.0 0.008447303
C  C43  1  0.18010000  0.05140000  0.13800000  1.0 -0.118390546
C  C44  1  0.12980000  0.00540000  0.31590000  1.0 0.1488334058
C  C45  1  0.50030000  0.33830000  0.08280000  1.0 0.6168816207
C  C46  1  0.51020000  0.12890000  0.97530000  1.0 0.5943780956
C  C47  1  0.07600000  0.93110000  0.33630000  1.0 -0.118390546
C  C48  1  0.15760000  0.44390000  0.91440000  1.0 0.0189400295
C  C49  1  0.70870000  0.62250000  0.04310000  1.0 0.5617982713
C  C50  1  0.61940000  0.01740000  0.83870000  1.0 0.1325276145
C  C51  1  0.67240000  0.56660000  0.14420000  1.0 -0.1129151689
C  C52  1  0.68700000  0.93790000  0.92220000  1.0 -0.0042299041
C  C53  1  0.59760000  0.48400000  0.06460000  1.0 -0.0582191548
C  C54  1  0.13310000  0.00100000  0.04150000  1.0 -0.0582191548
C  C55  1  0.56830000  0.07810000  0.87520000  1.0 -0.118390546
C  C56  1  0.05980000  0.58010000  0.89640000  1.0 0.0189400295
C  C57  1  0.75050000  0.86360000  0.94920000  1.0 0.5847623167
C  C58  1  0.07400000  0.93140000  0.06470000  1.0 0.008447303
C  C59  1  0.68010000  0.94860000  0.86200000  1.0 -0.118390546
C  C60  1  0.62980000  0.99460000  0.68410000  1.0 0.1488334058
C  C61  1  0.00030000  0.66170000  0.91720000  1.0 0.6168816207
C  C62  1  0.01020000  0.87110000  0.02470000  1.0 0.5943780956
C  C63  1  0.57600000  0.06890000  0.66370000  1.0 -0.118390546
C  C64  1  0.65760000  0.55610000  0.08560000  1.0 0.0189400295
N  N1  1  0.14860000  0.47850000  0.75520000  1.0 -0.1036053034
N  N2  1  0.10510000  0.53320000  0.72280000  1.0 -0.0796428895
N  N3  1  0.64860000  0.52150000  0.24480000  1.0 -0.1036053034
N  N4  1  0.60510000  0.46680000  0.27720000  1.0 -0.0796428895
N  N5  1  0.14860000  0.02150000  0.25520000  1.0 -0.1036053034
N  N6  1  0.10510000  0.96680000  0.22280000  1.0 -0.0796428895
N  N7  1  0.64860000  0.97850000  0.74480000  1.0 -0.1036053034
N  N8  1  0.60510000  0.03320000  0.77720000  1.0 -0.0796428895
O  O1  1  0.46040000  0.30780000  0.45120000  1.0 -0.4919111909
O  O2  1  0.44440000  0.15210000  0.53790000  1.0 -0.4919111909
O  O3  1  0.23920000  0.34920000  0.49710000  1.0 -0.4510767641
O  O4  1  0.51220000  0.23180000  0.61300000  1.0 -0.5599235477
O  O5  1  0.17820000  0.12380000  0.50900000  1.0 -0.402093518
O  O6  1  0.31240000  0.31720000  0.58150000  1.0 -0.5688648405
O  O7  1  0.50740000  0.39230000  0.52810000  1.0 -0.5471345367
O  O8  1  0.28400000  0.16850000  0.43650000  1.0 -0.468595046
O  O9  1  0.41210000  0.49440000  0.61850000  1.0 -0.3380215125
O  O10  1  0.42160000  0.34660000  0.70070000  1.0 -0.4417762416
O  O11  1  0.61380000  0.40870000  0.63640000  1.0 -0.3073377641
O  O12  1  0.96040000  0.69220000  0.54880000  1.0 -0.4919111909
O  O13  1  0.94440000  0.84790000  0.46210000  1.0 -0.4919111909
O  O14  1  0.73920000  0.65080000  0.50290000  1.0 -0.4510767641
O  O15  1  0.01220000  0.76820000  0.38700000  1.0 -0.5599235477
O  O16  1  0.67820000  0.87620000  0.49100000  1.0 -0.402093518
O  O17  1  0.81240000  0.68280000  0.41850000  1.0 -0.5688648405
O  O18  1  0.00740000  0.60770000  0.47190000  1.0 -0.5471345367
O  O19  1  0.78400000  0.83150000  0.56350000  1.0 -0.468595046
O  O20  1  0.91210000  0.50560000  0.38150000  1.0 -0.3380215125
O  O21  1  0.92160000  0.65340000  0.29930000  1.0 -0.4417762416
O  O22  1  0.11380000  0.59130000  0.36360000  1.0 -0.3073377641
O  O23  1  0.46040000  0.19220000  0.95120000  1.0 -0.4919111909
O  O24  1  0.44440000  0.34790000  0.03790000  1.0 -0.4919111909
O  O25  1  0.23920000  0.15080000  0.99710000  1.0 -0.4510767641
O  O26  1  0.51220000  0.26820000  0.11300000  1.0 -0.5599235477
O  O27  1  0.17820000  0.37620000  0.00900000  1.0 -0.402093518
O  O28  1  0.31240000  0.18280000  0.08150000  1.0 -0.5688648405
O  O29  1  0.50740000  0.10770000  0.02810000  1.0 -0.5471345367
O  O30  1  0.28400000  0.33150000  0.93650000  1.0 -0.468595046
O  O31  1  0.41210000  0.00560000  0.11850000  1.0 -0.3380215125
O  O32  1  0.42160000  0.15340000  0.20070000  1.0 -0.4417762416
O  O33  1  0.61380000  0.09130000  0.13640000  1.0 -0.3073377641
O  O34  1  0.96040000  0.80780000  0.04880000  1.0 -0.4919111909
O  O35  1  0.94440000  0.65210000  0.96210000  1.0 -0.4919111909
O  O36  1  0.73920000  0.84920000  0.00290000  1.0 -0.4510767641
O  O37  1  0.01220000  0.73180000  0.88700000  1.0 -0.5599235477
O  O38  1  0.67820000  0.62380000  0.99100000  1.0 -0.402093518
O  O39  1  0.81240000  0.81720000  0.91850000  1.0 -0.5688648405
O  O40  1  0.00740000  0.89230000  0.97190000  1.0 -0.5471345367
O  O41  1  0.78400000  0.66850000  0.06350000  1.0 -0.468595046
O  O42  1  0.91210000  0.99440000  0.88150000  1.0 -0.3380215125
O  O43  1  0.92160000  0.84660000  0.79930000  1.0 -0.4417762416
O  O44  1  0.11380000  0.90870000  0.86360000  1.0 -0.3073377641
