# DDEC6 charges by PACMAN v1.1 (https://github.com/mtap-research/PACMAN-charge/)
data_2019[Zn][nan]3[ASR]5
_chemical_formula_sum              "Zn16 H76 C180 N8 O88"
_cell_length_a       17.427
_cell_length_b       22.7852
_cell_length_c       25.235
_cell_angle_alpha    90
_cell_angle_beta     90
_cell_angle_gamma    90

_symmetry_space_group_name_H-M    "P 1"
_symmetry_Int_Tables_number       1

loop_
  _symmetry_equiv_pos_as_xyz
  'x, y, z'

loop_
  _atom_site_type_symbol
  _atom_site_label
  _atom_site_symmetry_multiplicity
  _atom_site_fract_x
  _atom_site_fract_y
  _atom_site_fract_z
  _atom_site_occupancy
  _atom_site_charge
Zn  Zn1       1.0  0.25399  0.25017  0.99524  1.0000 0.9414648649
Zn  Zn2       1.0  0.58680  0.24371  0.98866  1.0000 0.9298857984
Zn  Zn3       1.0  0.58536  0.45148  0.64625  1.0000 0.9762249427
Zn  Zn4       1.0  0.41777  0.37211  0.71332  1.0000 0.9623641608
Zn  Zn5       1.0  0.24601  0.74983  0.49524  1.0000 0.9414648649
Zn  Zn6       1.0  0.91320  0.75629  0.48866  1.0000 0.9298857984
Zn  Zn7       1.0  0.91464  0.54852  0.14625  1.0000 0.9762249427
Zn  Zn8       1.0  0.08223  0.62789  0.21332  1.0000 0.9623641608
Zn  Zn9       1.0  0.74601  0.75017  0.50476  1.0000 0.9414648649
Zn  Zn10      1.0  0.41320  0.74371  0.51134  1.0000 0.9298857984
Zn  Zn11      1.0  0.41464  0.95148  0.85375  1.0000 0.9762249427
Zn  Zn12      1.0  0.58223  0.87211  0.78668  1.0000 0.9623641608
Zn  Zn13      1.0  0.75399  0.24983  0.00476  1.0000 0.9414648649
Zn  Zn14      1.0  0.08680  0.25629  0.01134  1.0000 0.9298857984
Zn  Zn15      1.0  0.08536  0.04852  0.35375  1.0000 0.9749344823
Zn  Zn16      1.0  0.91777  0.12789  0.28668  1.0000 0.9623641608
H   H1        1.0  0.81506  0.34668  0.85842  1.0000 0.1237003379
H   H2        1.0  0.74669  0.58406  0.57275  1.0000 0.1398756713
H   H3        1.0  0.07772  0.54283  0.59020  1.0000 0.1237003379
H   H4        1.0  0.42499  0.25816  0.02285  1.0000 0.1464386769
H   H5        1.0  0.40986  0.57448  0.59157  1.0000 0.1398756713
H   H6        1.0  0.58800  0.31975  0.83369  1.0000 0.1398756713
H   H7        1.0  0.97382  0.57970  0.55465  1.0000 0.1291001029
H   H8        1.0  0.28100  0.43927  0.63290  1.0000 0.1291001029
H   H9        1.0  0.02848  0.34547  0.86111  1.0000 0.1237003379
H   H10       1.0  0.91994  0.34318  0.80347  1.0000 0.1291001029
H   H11       1.0  0.18308  0.57643  0.56165  1.0000 0.1237003379
H   H12       1.0  0.25453  0.32753  0.84216  1.0000 0.1398756713
H   H13       1.0  0.86355  0.44454  0.62390  1.0000 0.1237003379
H   H14       1.0  0.71678  0.40414  0.72412  1.0000 0.1237003379
H   H15       1.0  0.80869  0.47869  0.74162  1.0000 0.1398756713
H   H16       1.0  0.03963  0.47849  0.74185  1.0000 0.1398756713
H   H17       1.0  0.18502  0.39000  0.61464  1.0000 0.1398756713
H   H18       1.0  0.12924  0.40241  0.72869  1.0000 0.1237003379
H   H19       1.0  0.95838  0.39245  0.58864  1.0000 0.1398756713
H   H20       1.0  0.68494  0.65332  0.35842  1.0000 0.1237003379
H   H21       1.0  0.75331  0.41594  0.07275  1.0000 0.1398756713
H   H22       1.0  0.42228  0.45717  0.09020  1.0000 0.1237003379
H   H23       1.0  0.07501  0.74184  0.52285  1.0000 0.1464386769
H   H24       1.0  0.09014  0.42552  0.09157  1.0000 0.1398756713
H   H25       1.0  0.91200  0.68025  0.33369  1.0000 0.1398756713
H   H26       1.0  0.52618  0.42030  0.05465  1.0000 0.1291001029
H   H27       1.0  0.21900  0.56073  0.13290  1.0000 0.1291001029
H   H28       1.0  0.47152  0.65453  0.36111  1.0000 0.1237003379
H   H29       1.0  0.58006  0.65682  0.30347  1.0000 0.1291001029
H   H30       1.0  0.31692  0.42357  0.06165  1.0000 0.1237003379
H   H31       1.0  0.24547  0.67247  0.34216  1.0000 0.1398756713
H   H32       1.0  0.63645  0.55546  0.12390  1.0000 0.1237003379
H   H33       1.0  0.78322  0.59586  0.22412  1.0000 0.1237003379
H   H34       1.0  0.69131  0.52131  0.24162  1.0000 0.1398756713
H   H35       1.0  0.46037  0.52151  0.24185  1.0000 0.1398756713
H   H36       1.0  0.31498  0.61000  0.11464  1.0000 0.1398756713
H   H37       1.0  0.37076  0.59759  0.22869  1.0000 0.1237003379
H   H38       1.0  0.54162  0.60755  0.08864  1.0000 0.1398756713
H   H39       1.0  0.18494  0.84668  0.64158  1.0000 0.1237003379
H   H40       1.0  0.25331  0.08406  0.92725  1.0000 0.1398756713
H   H41       1.0  0.92228  0.04283  0.90980  1.0000 0.1237003379
H   H42       1.0  0.57501  0.75816  0.47715  1.0000 0.1464386769
H   H43       1.0  0.59014  0.07448  0.90843  1.0000 0.1398756713
H   H44       1.0  0.41200  0.81975  0.66631  1.0000 0.1398756713
H   H45       1.0  0.02618  0.07970  0.94535  1.0000 0.1291001029
H   H46       1.0  0.71900  0.93927  0.86710  1.0000 0.1291001029
H   H47       1.0  0.97152  0.84547  0.63889  1.0000 0.1237003379
H   H48       1.0  0.08006  0.84318  0.69653  1.0000 0.1291001029
H   H49       1.0  0.81692  0.07643  0.93835  1.0000 0.1237003379
H   H50       1.0  0.74547  0.82753  0.65784  1.0000 0.1398756713
H   H51       1.0  0.13645  0.94454  0.87610  1.0000 0.1237003379
H   H52       1.0  0.28322  0.90414  0.77588  1.0000 0.1237003379
H   H53       1.0  0.19131  0.97869  0.75838  1.0000 0.1398756713
H   H54       1.0  0.96037  0.97849  0.75815  1.0000 0.1398756713
H   H55       1.0  0.81498  0.89000  0.88536  1.0000 0.1398756713
H   H56       1.0  0.87076  0.90241  0.77131  1.0000 0.1237003379
H   H57       1.0  0.04162  0.89245  0.91136  1.0000 0.1398756713
H   H58       1.0  0.31506  0.15332  0.14158  1.0000 0.1237003379
H   H59       1.0  0.24669  0.91594  0.42725  1.0000 0.1398756713
H   H60       1.0  0.57772  0.95717  0.40980  1.0000 0.1237003379
H   H61       1.0  0.92499  0.24184  0.97715  1.0000 0.1398756713
H   H62       1.0  0.90986  0.92552  0.40843  1.0000 0.1398756713
H   H63       1.0  0.08800  0.18025  0.16631  1.0000 0.1398756713
H   H64       1.0  0.47382  0.92030  0.44535  1.0000 0.1291001029
H   H65       1.0  0.78100  0.06073  0.36710  1.0000 0.1291001029
H   H66       1.0  0.52848  0.15453  0.13889  1.0000 0.1237003379
H   H67       1.0  0.41994  0.15682  0.19653  1.0000 0.1291001029
H   H68       1.0  0.68308  0.92357  0.43835  1.0000 0.1237003379
H   H69       1.0  0.75453  0.17247  0.15784  1.0000 0.1398756713
H   H70       1.0  0.36355  0.05546  0.37610  1.0000 0.1237003379
H   H71       1.0  0.21678  0.09586  0.27588  1.0000 0.1237003379
H   H72       1.0  0.30869  0.02131  0.25838  1.0000 0.1398756713
H   H73       1.0  0.53963  0.02151  0.25815  1.0000 0.1398756713
H   H74       1.0  0.68502  0.11000  0.38536  1.0000 0.1398756713
H   H75       1.0  0.62924  0.09759  0.27131  1.0000 0.1237003379
H   H76       1.0  0.45838  0.10755  0.41136  1.0000 0.1398756713
C   C1        1.0  0.77180  0.35090  0.83720  1.0000 -0.1313440011
C   C2        1.0  0.70010  0.32660  0.85430  1.0000 -0.0181673544
C   C3        1.0  0.77730  0.37990  0.79070  1.0000 0.0723813254
C   C4        1.0  0.35650  0.50190  0.61250  1.0000 -0.0439478594
C   C5        1.0  0.79300  0.56420  0.57590  1.0000 -0.0815833193
C   C6        1.0  0.85960  0.59040  0.55870  1.0000 -0.0181673544
C   C7        1.0  0.07590  0.50220  0.59380  1.0000 -0.1628822505
C   C8        1.0  0.42180  0.24350  0.98850  1.0000 0.5111550567
C   C9        1.0  0.36230  0.55590  0.59200  1.0000 -0.0815833193
C   C10       1.0  0.85710  0.65090  0.53640  1.0000 0.5991257456
C   C11       1.0  0.29650  0.58570  0.57070  1.0000 -0.0078815792
C   C12       1.0  0.93140  0.50410  0.58630  1.0000 0.0609550549
C   C13       1.0  0.00470  0.47360  0.59390  1.0000 0.0879313101
C   C14       1.0  0.85190  0.40740  0.77370  1.0000 0.1114727448
C   C15       1.0  0.14710  0.30080  0.91200  1.0000 0.5991257456
C   C16       1.0  0.63520  0.33430  0.82250  1.0000 -0.0815833193
C   C17       1.0  0.14110  0.32800  0.85900  1.0000 -0.0305375515
C   C18       1.0  0.92850  0.56130  0.56480  1.0000 -0.1313440011
C   C19       1.0  0.22000  0.50320  0.59620  1.0000 0.0800831032
C   C20       1.0  0.30370  0.64480  0.54460  1.0000 0.5991257456
C   C21       1.0  0.28550  0.47570  0.61650  1.0000 -0.1082925561
C   C22       1.0  0.06490  0.37670  0.79030  1.0000 0.0723813254
C   C23       1.0  0.07200  0.34930  0.84010  1.0000 -0.1351294878
C   C24       1.0  0.69320  0.29610  0.90640  1.0000 0.5991257456
C   C25       1.0  0.92100  0.37960  0.78680  1.0000 -0.1758322033
C   C26       1.0  0.22680  0.55770  0.57440  1.0000 -0.1313440011
C   C27       1.0  0.99040  0.40540  0.77540  1.0000 0.1114727448
C   C28       1.0  0.20640  0.33590  0.82810  1.0000 -0.0895162734
C   C29       1.0  0.86270  0.48000  0.60570  1.0000 -0.1464217051
C   C30       1.0  0.71230  0.38590  0.75700  1.0000 -0.1208234418
C   C31       1.0  0.79410  0.50890  0.59770  1.0000 0.0131321344
C   C32       1.0  0.92370  0.48580  0.73710  1.0000 0.0609550549
C   C33       1.0  0.64080  0.36370  0.77430  1.0000 -0.0504843884
C   C34       1.0  0.14430  0.47080  0.59910  1.0000 0.1013116867
C   C35       1.0  0.57460  0.37090  0.73970  1.0000 0.5991257456
C   C36       1.0  0.85430  0.45960  0.74980  1.0000 -0.1628822505
C   C37       1.0  0.27230  0.35950  0.73980  1.0000 0.56007328
C   C38       1.0  0.42350  0.47280  0.63570  1.0000 0.6121087608
C   C39       1.0  0.72290  0.47620  0.61910  1.0000 0.5368185875
C   C40       1.0  0.99330  0.46030  0.74980  1.0000 -0.1875951651
C   C41       1.0  0.14100  0.41160  0.60740  1.0000 -0.1705635141
C   C42       1.0  0.13090  0.38160  0.76040  1.0000 -0.1464217051
C   C43       1.0  0.20020  0.35630  0.77640  1.0000 0.0131321344
C   C44       1.0  0.00340  0.41340  0.59460  1.0000 -0.1705635141
C   C45       1.0  0.07150  0.38560  0.60470  1.0000 0.0879313101
C   C46       1.0  0.72820  0.64910  0.33720  1.0000 -0.1313440011
C   C47       1.0  0.79990  0.67340  0.35430  1.0000 -0.0181673544
C   C48       1.0  0.72270  0.62010  0.29070  1.0000 0.0723813254
C   C49       1.0  0.14350  0.49810  0.11250  1.0000 -0.0504843884
C   C50       1.0  0.70700  0.43580  0.07590  1.0000 -0.0815833193
C   C51       1.0  0.64040  0.40960  0.05870  1.0000 -0.0181673544
C   C52       1.0  0.42410  0.49780  0.09380  1.0000 -0.1628822505
C   C53       1.0  0.07820  0.75650  0.48850  1.0000 0.5111550567
C   C54       1.0  0.13770  0.44410  0.09200  1.0000 -0.0815833193
C   C55       1.0  0.64290  0.34910  0.03640  1.0000 0.5991257456
C   C56       1.0  0.20350  0.41430  0.07070  1.0000 -0.0078815792
C   C57       1.0  0.56860  0.49590  0.08630  1.0000 0.0609550549
C   C58       1.0  0.49530  0.52640  0.09390  1.0000 0.0879313101
C   C59       1.0  0.64810  0.59260  0.27370  1.0000 0.1114727448
C   C60       1.0  0.35290  0.69920  0.41200  1.0000 0.5991257456
C   C61       1.0  0.86480  0.66570  0.32250  1.0000 -0.0815833193
C   C62       1.0  0.35890  0.67200  0.35900  1.0000 -0.0305375515
C   C63       1.0  0.57150  0.43870  0.06480  1.0000 -0.1313440011
C   C64       1.0  0.28000  0.49680  0.09620  1.0000 0.0800831032
C   C65       1.0  0.19630  0.35520  0.04460  1.0000 0.5991257456
C   C66       1.0  0.21450  0.52430  0.11650  1.0000 -0.1082925561
C   C67       1.0  0.43510  0.62330  0.29030  1.0000 0.0723813254
C   C68       1.0  0.42800  0.65070  0.34010  1.0000 -0.1313440011
C   C69       1.0  0.80680  0.70390  0.40640  1.0000 0.5991257456
C   C70       1.0  0.57900  0.62040  0.28680  1.0000 -0.1758322033
C   C71       1.0  0.27320  0.44230  0.07440  1.0000 -0.1313440011
C   C72       1.0  0.50960  0.59460  0.27540  1.0000 0.1114727448
C   C73       1.0  0.29360  0.66410  0.32810  1.0000 -0.0895162734
C   C74       1.0  0.63730  0.52000  0.10570  1.0000 -0.1464217051
C   C75       1.0  0.78770  0.61410  0.25700  1.0000 -0.1208234418
C   C76       1.0  0.70590  0.49110  0.09770  1.0000 0.0158539427
C   C77       1.0  0.57630  0.51420  0.23710  1.0000 0.0609550549
C   C78       1.0  0.85920  0.63630  0.27430  1.0000 -0.0504843884
C   C79       1.0  0.35570  0.52920  0.09910  1.0000 0.1013116867
C   C80       1.0  0.92540  0.62910  0.23970  1.0000 0.5991257456
C   C81       1.0  0.64570  0.54040  0.24980  1.0000 -0.1628822505
C   C82       1.0  0.22770  0.64050  0.23980  1.0000 0.56007328
C   C83       1.0  0.07650  0.52720  0.13570  1.0000 0.6121087608
C   C84       1.0  0.77710  0.52380  0.11910  1.0000 0.5368185875
C   C85       1.0  0.50670  0.53970  0.24980  1.0000 -0.1875951651
C   C86       1.0  0.35900  0.58840  0.10740  1.0000 -0.1705635141
C   C87       1.0  0.36910  0.61840  0.26040  1.0000 -0.1464217051
C   C88       1.0  0.29980  0.64370  0.27640  1.0000 0.0131321344
C   C89       1.0  0.49660  0.58660  0.09460  1.0000 -0.1705635141
C   C90       1.0  0.42850  0.61440  0.10470  1.0000 0.0879313101
C   C91       1.0  0.22820  0.85090  0.66280  1.0000 -0.1313440011
C   C92       1.0  0.29990  0.82660  0.64570  1.0000 -0.0181673544
C   C93       1.0  0.22270  0.87990  0.70930  1.0000 0.0723813254
C   C94       1.0  0.64350  0.00190  0.88750  1.0000 -0.0504843884
C   C95       1.0  0.20700  0.06420  0.92410  1.0000 -0.0815833193
C   C96       1.0  0.14040  0.09040  0.94130  1.0000 -0.0181673544
C   C97       1.0  0.92410  0.00220  0.90620  1.0000 -0.1628822505
C   C98       1.0  0.57820  0.74350  0.51150  1.0000 0.5111550567
C   C99       1.0  0.63770  0.05590  0.90800  1.0000 -0.0815833193
C   C100      1.0  0.14290  0.15090  0.96360  1.0000 0.5991257456
C   C101      1.0  0.70350  0.08570  0.92930  1.0000 -0.0078815792
C   C102      1.0  0.06860  0.00410  0.91370  1.0000 0.0609550549
C   C103      1.0  0.99530  0.97360  0.90610  1.0000 0.0879313101
C   C104      1.0  0.14810  0.90740  0.72630  1.0000 0.1114727448
C   C105      1.0  0.85290  0.80080  0.58800  1.0000 0.5991257456
C   C106      1.0  0.36480  0.83430  0.67750  1.0000 -0.0815833193
C   C107      1.0  0.85890  0.82800  0.64100  1.0000 -0.0305375515
C   C108      1.0  0.07150  0.06130  0.93520  1.0000 -0.1313440011
C   C109      1.0  0.78000  0.00320  0.90380  1.0000 0.0800831032
C   C110      1.0  0.69630  0.14480  0.95540  1.0000 0.5991257456
C   C111      1.0  0.71450  0.97570  0.88350  1.0000 -0.1082925561
C   C112      1.0  0.93510  0.87670  0.70970  1.0000 0.0723813254
C   C113      1.0  0.92800  0.84930  0.65990  1.0000 -0.1313440011
C   C114      1.0  0.30680  0.79610  0.59360  1.0000 0.5991257456
C   C115      1.0  0.07900  0.87960  0.71320  1.0000 -0.1758322033
C   C116      1.0  0.77320  0.05770  0.92560  1.0000 -0.1313440011
C   C117      1.0  0.00960  0.90540  0.72460  1.0000 0.1114727448
C   C118      1.0  0.79360  0.83590  0.67190  1.0000 -0.0895162734
C   C119      1.0  0.13730  0.98000  0.89430  1.0000 -0.1464217051
C   C120      1.0  0.28770  0.88590  0.74300  1.0000 -0.1208234418
C   C121      1.0  0.20590  0.00890  0.90230  1.0000 0.0131321344
C   C122      1.0  0.07630  0.98580  0.76290  1.0000 0.0609550549
C   C123      1.0  0.35920  0.86370  0.72570  1.0000 -0.0504843884
C   C124      1.0  0.85570  0.97080  0.90090  1.0000 0.1013116867
C   C125      1.0  0.42540  0.87090  0.76030  1.0000 0.5991257456
C   C126      1.0  0.14570  0.95960  0.75020  1.0000 -0.1628822505
C   C127      1.0  0.72770  0.85950  0.76020  1.0000 0.56007328
C   C128      1.0  0.57650  0.97280  0.86430  1.0000 0.6121087608
C   C129      1.0  0.27710  0.97620  0.88090  1.0000 0.5368185875
C   C130      1.0  0.00670  0.96030  0.75020  1.0000 -0.1875951651
C   C131      1.0  0.85900  0.91160  0.89260  1.0000 -0.1705635141
C   C132      1.0  0.86910  0.88160  0.73960  1.0000 -0.1464217051
C   C133      1.0  0.79980  0.85630  0.72360  1.0000 0.0131321344
C   C134      1.0  0.99660  0.91340  0.90540  1.0000 -0.1705635141
C   C135      1.0  0.92850  0.88560  0.89530  1.0000 0.0879313101
C   C136      1.0  0.27180  0.14910  0.16280  1.0000 -0.1313440011
C   C137      1.0  0.20010  0.17340  0.14570  1.0000 -0.0181673544
C   C138      1.0  0.27730  0.12010  0.20930  1.0000 0.0723813254
C   C139      1.0  0.85650  0.99810  0.38750  1.0000 -0.0504843884
C   C140      1.0  0.29300  0.93580  0.42410  1.0000 -0.0815833193
C   C141      1.0  0.35960  0.90960  0.44130  1.0000 -0.0181673544
C   C142      1.0  0.57590  0.99780  0.40620  1.0000 -0.1628822505
C   C143      1.0  0.92180  0.25650  0.01150  1.0000 0.5111550567
C   C144      1.0  0.86230  0.94410  0.40800  1.0000 -0.0815833193
C   C145      1.0  0.35710  0.84910  0.46360  1.0000 0.5991257456
C   C146      1.0  0.79650  0.91430  0.42930  1.0000 -0.0078815792
C   C147      1.0  0.43140  0.99590  0.41370  1.0000 0.0609550549
C   C148      1.0  0.50470  0.02640  0.40610  1.0000 0.0879313101
C   C149      1.0  0.35190  0.09260  0.22630  1.0000 0.1114727448
C   C150      1.0  0.64710  0.19920  0.08800  1.0000 0.5991257456
C   C151      1.0  0.13520  0.16570  0.17750  1.0000 -0.0815833193
C   C152      1.0  0.64110  0.17200  0.14100  1.0000 -0.0305375515
C   C153      1.0  0.42850  0.93870  0.43520  1.0000 -0.1313440011
C   C154      1.0  0.72000  0.99680  0.40380  1.0000 0.0800831032
C   C155      1.0  0.80370  0.85520  0.45540  1.0000 0.5991257456
C   C156      1.0  0.78550  0.02430  0.38350  1.0000 -0.1082925561
C   C157      1.0  0.56490  0.12330  0.20970  1.0000 0.0723813254
C   C158      1.0  0.57200  0.15070  0.15990  1.0000 -0.1351294878
C   C159      1.0  0.19320  0.20390  0.09360  1.0000 0.5991257456
C   C160      1.0  0.42100  0.12040  0.21320  1.0000 -0.1758322033
C   C161      1.0  0.72680  0.94230  0.42560  1.0000 -0.1313440011
C   C162      1.0  0.49040  0.09460  0.22460  1.0000 0.1114727448
C   C163      1.0  0.70640  0.16410  0.17190  1.0000 -0.0895162734
C   C164      1.0  0.36270  0.02000  0.39430  1.0000 -0.1464217051
C   C165      1.0  0.21230  0.11410  0.24300  1.0000 -0.1208234418
C   C166      1.0  0.29410  0.99110  0.40230  1.0000 0.0158539427
C   C167      1.0  0.42370  0.01420  0.26290  1.0000 0.0609550549
C   C168      1.0  0.14080  0.13630  0.22570  1.0000 -0.0504843884
C   C169      1.0  0.64430  0.02920  0.40090  1.0000 0.1013116867
C   C170      1.0  0.07460  0.12910  0.26030  1.0000 0.5991257456
C   C171      1.0  0.35430  0.04040  0.25020  1.0000 -0.1628822505
C   C172      1.0  0.77230  0.14050  0.26020  1.0000 0.56007328
C   C173      1.0  0.92350  0.02720  0.36430  1.0000 0.6121087608
C   C174      1.0  0.22290  0.02380  0.38090  1.0000 0.5368185875
C   C175      1.0  0.49330  0.03970  0.25020  1.0000 -0.1875951651
C   C176      1.0  0.64100  0.08840  0.39260  1.0000 -0.1705635141
C   C177      1.0  0.63090  0.11840  0.23960  1.0000 -0.1464217051
C   C178      1.0  0.70020  0.14370  0.22360  1.0000 0.0131321344
C   C179      1.0  0.50340  0.08660  0.40540  1.0000 -0.1705635141
C   C180      1.0  0.57150  0.11440  0.39530  1.0000 0.0879313101
N   N1        1.0  0.92800  0.54270  0.71400  1.0000 0.4845144388
N   N2        1.0  0.07300  0.32000  0.61270  1.0000 0.5156320569
N   N3        1.0  0.57200  0.45730  0.21400  1.0000 0.4845144388
N   N4        1.0  0.42700  0.68000  0.11270  1.0000 0.5156320569
N   N5        1.0  0.07200  0.04270  0.78600  1.0000 0.4865660903
N   N6        1.0  0.92700  0.82000  0.88730  1.0000 0.5156320569
N   N7        1.0  0.42800  0.95730  0.28600  1.0000 0.4865660903
N   N8        1.0  0.57300  0.18000  0.38730  1.0000 0.5111550567
O   O1        1.0  0.48081  0.23182  0.96437  1.0000 -0.409359521
O   O2        1.0  0.62697  0.28200  0.92205  1.0000 -0.5396101984
O   O3        1.0  0.75518  0.28479  0.93164  1.0000 -0.560275397
O   O4        1.0  0.91870  0.67448  0.52350  1.0000 -0.5284065326
O   O5        1.0  0.24376  0.67065  0.52815  1.0000 -0.5500272525
O   O6        1.0  0.08710  0.29327  0.93835  1.0000 -0.5500272525
O   O7        1.0  0.35684  0.23590  0.96764  1.0000 -0.4355656865
O   O8        1.0  0.79130  0.67150  0.53007  1.0000 -0.5284065326
O   O9        1.0  0.21420  0.28980  0.92841  1.0000 -0.5284065326
O   O10       1.0  0.37115  0.66610  0.54023  1.0000 -0.5396101984
O   O11       1.0  0.51010  0.35710  0.75870  1.0000 -0.5197198751
O   O12       1.0  0.98930  0.56610  0.69970  1.0000 -0.3303187701
O   O13       1.0  0.58290  0.38420  0.69210  1.0000 -0.5732544276
O   O14       1.0  0.72720  0.42750  0.63630  1.0000 -0.4926480266
O   O15       1.0  0.33401  0.35540  0.76270  1.0000 -0.5284065326
O   O16       1.0  0.65900  0.50930  0.61210  1.0000 -0.5813646677
O   O17       1.0  0.48780  0.49590  0.62890  1.0000 -0.4999777836
O   O18       1.0  0.26140  0.36040  0.69050  1.0000 -0.5500272525
O   O19       1.0  0.86780  0.57250  0.70680  1.0000 -0.3303187701
O   O20       1.0  0.41700  0.42330  0.65560  1.0000 -0.560275397
O   O21       1.0  0.00910  0.29840  0.63010  1.0000 -0.3877199579
O   O22       1.0  0.13270  0.29120  0.60110  1.0000 -0.3062070521
O   O23       1.0  0.01919  0.76818  0.46437  1.0000 -0.409359521
O   O24       1.0  0.87303  0.71800  0.42205  1.0000 -0.5396101984
O   O25       1.0  0.74482  0.71521  0.43164  1.0000 -0.560275397
O   O26       1.0  0.58130  0.32552  0.02350  1.0000 -0.5284065326
O   O27       1.0  0.25624  0.32935  0.02815  1.0000 -0.5500272525
O   O28       1.0  0.41290  0.70673  0.43835  1.0000 -0.5500272525
O   O29       1.0  0.14316  0.76410  0.46764  1.0000 -0.4355656865
O   O30       1.0  0.70870  0.32850  0.03007  1.0000 -0.5284065326
O   O31       1.0  0.28580  0.71020  0.42841  1.0000 -0.5197198751
O   O32       1.0  0.12885  0.33390  0.04023  1.0000 -0.5396101984
O   O33       1.0  0.98990  0.64290  0.25870  1.0000 -0.5197198751
O   O34       1.0  0.51070  0.43390  0.19970  1.0000 -0.3303187701
O   O35       1.0  0.91710  0.61580  0.19210  1.0000 -0.5732544276
O   O36       1.0  0.77280  0.57250  0.13630  1.0000 -0.4999777836
O   O37       1.0  0.16599  0.64460  0.26270  1.0000 -0.5284065326
O   O38       1.0  0.84100  0.49070  0.11210  1.0000 -0.5813646677
O   O39       1.0  0.01220  0.50410  0.12890  1.0000 -0.4999777836
O   O40       1.0  0.23860  0.63960  0.19050  1.0000 -0.5500272525
O   O41       1.0  0.63220  0.42750  0.20680  1.0000 -0.3303187701
O   O42       1.0  0.08300  0.57670  0.15560  1.0000 -0.560275397
O   O43       1.0  0.49090  0.70160  0.13010  1.0000 -0.3877199579
O   O44       1.0  0.36730  0.70880  0.10110  1.0000 -0.3062070521
O   O45       1.0  0.51919  0.73182  0.53563  1.0000 -0.409359521
O   O46       1.0  0.37303  0.78200  0.57795  1.0000 -0.5396101984
O   O47       1.0  0.24482  0.78479  0.56836  1.0000 -0.560275397
O   O48       1.0  0.08130  0.17448  0.97650  1.0000 -0.5284065326
O   O49       1.0  0.75624  0.17065  0.97185  1.0000 -0.5500272525
O   O50       1.0  0.91290  0.79327  0.56165  1.0000 -0.5500272525
O   O51       1.0  0.64316  0.73590  0.53236  1.0000 -0.4355656865
O   O52       1.0  0.20870  0.17150  0.96993  1.0000 -0.5284065326
O   O53       1.0  0.78580  0.78980  0.57159  1.0000 -0.5197198751
O   O54       1.0  0.62885  0.16610  0.95977  1.0000 -0.5396101984
O   O55       1.0  0.48990  0.85710  0.74130  1.0000 -0.5197198751
O   O56       1.0  0.01070  0.06610  0.80030  1.0000 -0.3303187701
O   O57       1.0  0.41710  0.88420  0.80790  1.0000 -0.5732544276
O   O58       1.0  0.27280  0.92750  0.86370  1.0000 -0.4999777836
O   O59       1.0  0.66599  0.85540  0.73730  1.0000 -0.5284065326
O   O60       1.0  0.34100  0.00930  0.88790  1.0000 -0.5813646677
O   O61       1.0  0.51220  0.99590  0.87110  1.0000 -0.4999777836
O   O62       1.0  0.73860  0.86040  0.80950  1.0000 -0.5500272525
O   O63       1.0  0.13220  0.07250  0.79320  1.0000 -0.3303187701
O   O64       1.0  0.58300  0.92330  0.84440  1.0000 -0.560275397
O   O65       1.0  0.99090  0.79840  0.86990  1.0000 -0.3877199579
O   O66       1.0  0.86730  0.79120  0.89890  1.0000 -0.3062070521
O   O67       1.0  0.98081  0.26818  0.03563  1.0000 -0.409359521
O   O68       1.0  0.12697  0.21800  0.07795  1.0000 -0.5396101984
O   O69       1.0  0.25518  0.21521  0.06836  1.0000 -0.560275397
O   O70       1.0  0.41870  0.82552  0.47650  1.0000 -0.5284065326
O   O71       1.0  0.74376  0.82935  0.47185  1.0000 -0.5500272525
O   O72       1.0  0.58710  0.20673  0.06165  1.0000 -0.5500272525
O   O73       1.0  0.85684  0.26410  0.03236  1.0000 -0.4347837034
O   O74       1.0  0.29130  0.82850  0.46993  1.0000 -0.5284065326
O   O75       1.0  0.71420  0.21020  0.07159  1.0000 -0.5284065326
O   O76       1.0  0.87115  0.83390  0.45977  1.0000 -0.5396101984
O   O77       1.0  0.01010  0.14290  0.24130  1.0000 -0.5197198751
O   O78       1.0  0.48930  0.93390  0.30030  1.0000 -0.3303187701
O   O79       1.0  0.08290  0.11580  0.30790  1.0000 -0.5732544276
O   O80       1.0  0.22720  0.07250  0.36370  1.0000 -0.4926480266
O   O81       1.0  0.83401  0.14460  0.23730  1.0000 -0.5284065326
O   O82       1.0  0.15900  0.99070  0.38790  1.0000 -0.5813646677
O   O83       1.0  0.98780  0.00410  0.37110  1.0000 -0.4999777836
O   O84       1.0  0.76140  0.13960  0.30950  1.0000 -0.5500272525
O   O85       1.0  0.36780  0.92750  0.29320  1.0000 -0.3303187701
O   O86       1.0  0.91700  0.07670  0.34440  1.0000 -0.560275397
O   O87       1.0  0.50910  0.20160  0.36990  1.0000 -0.3877199579
O   O88       1.0  0.63270  0.20880  0.39890  1.0000 -0.3062070521
