# DDEC6 charges by PACMAN v1.1 (https://github.com/mtap-research/PACMAN-charge/)
data_c5dt03710g2_2_FSR_pacman
_symmetry_space_group_name_H-M   'P 1'
_cell_length_a   10.94490000
_cell_length_b   10.94490000
_cell_length_c   9.60900000
_cell_angle_alpha   90.00000000
_cell_angle_beta   90.00000000
_cell_angle_gamma   90.00000000
_symmetry_Int_Tables_number   1
_chemical_formula_structural   ZnH16C11NO4
_chemical_formula_sum   'Zn2 H32 C22 N2 O8'
_cell_volume   1151.07014322
_cell_formula_units_Z   2
loop_
 _symmetry_equiv_pos_site_id
 _symmetry_equiv_pos_as_xyz
  1  'x, y, z'
loop_
 _atom_site_type_symbol
 _atom_site_label
 _atom_site_symmetry_multiplicity
 _atom_site_fract_x
 _atom_site_fract_y
 _atom_site_fract_z
 _atom_site_occupancy
 _atom_site_charge
Zn  Zn1  1  0.00000000  0.00000000  0.34993000  1.0 0.8396290341
Zn  Zn2  1  0.00000000  0.00000000  0.65007000  1.0 0.8396290341
H  H1  1  0.00000000  0.39430000  0.70700000  1.0 0.141141186
H  H2  1  0.00000000  0.60570000  0.70700000  1.0 0.141141186
H  H3  1  0.39430000  0.00000000  0.70700000  1.0 0.141141186
H  H4  1  0.60570000  0.00000000  0.70700000  1.0 0.141141186
H  H5  1  0.00000000  0.60570000  0.29300000  1.0 0.141141186
H  H6  1  0.00000000  0.39430000  0.29300000  1.0 0.141141186
H  H7  1  0.39430000  0.00000000  0.29300000  1.0 0.141141186
H  H8  1  0.60570000  0.00000000  0.29300000  1.0 0.141141186
H  H9  1  0.12610000  0.13130000  0.11390000  0.75 0.1125295893
H  H10  1  0.87390000  0.86870000  0.11390000  0.75 0.1125295893
H  H11  1  0.13130000  0.87390000  0.11390000  0.75 0.1125295893
H  H12  1  0.86870000  0.12610000  0.11390000  0.75 0.1125295893
H  H13  1  0.12610000  0.86870000  0.88610000  0.75 0.1125295893
H  H14  1  0.87390000  0.13130000  0.88610000  0.75 0.1125295893
H  H15  1  0.13130000  0.12610000  0.88610000  0.75 0.1125295893
H  H16  1  0.86870000  0.87390000  0.88610000  0.75 0.1125295893
H  H17  1  0.87390000  0.86870000  0.88610000  0.75 0.1125295893
H  H18  1  0.12610000  0.13130000  0.88610000  0.75 0.1125295893
H  H19  1  0.86870000  0.12610000  0.88610000  0.75 0.1125295893
H  H20  1  0.13130000  0.87390000  0.88610000  0.75 0.1125295893
H  H21  1  0.87390000  0.13130000  0.11390000  0.75 0.1125295893
H  H22  1  0.12610000  0.86870000  0.11390000  0.75 0.1125295893
H  H23  1  0.86870000  0.87390000  0.11390000  0.75 0.1125295893
H  H24  1  0.13130000  0.12610000  0.11390000  0.75 0.1125295893
H  H25  1  0.18200000  0.99770000  0.11390000  0.75 0.1125295893
H  H26  1  0.81800000  0.00230000  0.11390000  0.75 0.1125295893
H  H27  1  0.99770000  0.81800000  0.11390000  0.75 0.1125295893
H  H28  1  0.00230000  0.18200000  0.11390000  0.75 0.1125295893
H  H29  1  0.18200000  0.00230000  0.88610000  0.75 0.1125295893
H  H30  1  0.81800000  0.99770000  0.88610000  0.75 0.1125295893
H  H31  1  0.99770000  0.18200000  0.88610000  0.75 0.1125295893
H  H32  1  0.00230000  0.81800000  0.88610000  0.75 0.1125295893
H  H33  1  0.81800000  0.00230000  0.88610000  0.75 0.1125295893
H  H34  1  0.18200000  0.99770000  0.88610000  0.75 0.1125295893
H  H35  1  0.00230000  0.18200000  0.88610000  0.75 0.1125295893
H  H36  1  0.99770000  0.81800000  0.88610000  0.75 0.1125295893
H  H37  1  0.81800000  0.99770000  0.11390000  0.75 0.1125295893
H  H38  1  0.18200000  0.00230000  0.11390000  0.75 0.1125295893
H  H39  1  0.00230000  0.81800000  0.11390000  0.75 0.1125295893
H  H40  1  0.99770000  0.18200000  0.11390000  0.75 0.1125295893
C  C1  1  0.00000000  0.23534000  0.50000000  1.0 0.5802587666
C  C2  1  0.00000000  0.76466000  0.50000000  1.0 0.5802587666
C  C3  1  0.23534000  0.00000000  0.50000000  1.0 0.5802587666
C  C4  1  0.76466000  0.00000000  0.50000000  1.0 0.5802587666
C  C5  1  0.00000000  0.37259000  0.50000000  1.0 0.0582712306
C  C6  1  0.00000000  0.62741000  0.50000000  1.0 0.0582712306
C  C7  1  0.37259000  0.00000000  0.50000000  1.0 0.0582712306
C  C8  1  0.62741000  0.00000000  0.50000000  1.0 0.0582712306
C  C9  1  0.00000000  0.43664000  0.62195000  1.0 -0.1065266035
C  C10  1  0.00000000  0.56336000  0.62195000  1.0 -0.1065266035
C  C11  1  0.43664000  0.00000000  0.62195000  1.0 -0.1065266035
C  C12  1  0.56336000  0.00000000  0.62195000  1.0 -0.1065266035
C  C13  1  0.00000000  0.56336000  0.37805000  1.0 -0.1065266035
C  C14  1  0.00000000  0.43664000  0.37805000  1.0 -0.1065266035
C  C15  1  0.43664000  0.00000000  0.37805000  1.0 -0.1065266035
C  C16  1  0.56336000  0.00000000  0.37805000  1.0 -0.1065266035
C  C17  1  0.11410000  0.04780000  0.07990000  0.375 -0.0662414352
C  C18  1  0.88590000  0.95220000  0.07990000  0.375 -0.0662414352
C  C19  1  0.04780000  0.88590000  0.07990000  0.375 -0.0662414352
C  C20  1  0.95220000  0.11410000  0.07990000  0.375 -0.0662414352
C  C21  1  0.11410000  0.95220000  0.92010000  0.375 -0.0662414352
C  C22  1  0.88590000  0.04780000  0.92010000  0.375 -0.0662414352
C  C23  1  0.04780000  0.11410000  0.92010000  0.375 -0.0662414352
C  C24  1  0.95220000  0.88590000  0.92010000  0.375 -0.0662414352
C  C25  1  0.88590000  0.95220000  0.92010000  0.375 -0.0662414352
C  C26  1  0.11410000  0.04780000  0.92010000  0.375 -0.0662414352
C  C27  1  0.95220000  0.11410000  0.92010000  0.375 -0.0662414352
C  C28  1  0.04780000  0.88590000  0.92010000  0.375 -0.0662414352
C  C29  1  0.88590000  0.04780000  0.07990000  0.375 -0.0662414352
C  C30  1  0.11410000  0.95220000  0.07990000  0.375 -0.0662414352
C  C31  1  0.95220000  0.88590000  0.07990000  0.375 -0.0662414352
C  C32  1  0.04780000  0.11410000  0.07990000  0.375 -0.0662414352
N  N1  1  0.00000000  0.00000000  0.13390000  1.0 -0.0867578587
N  N2  1  0.00000000  0.00000000  0.86610000  1.0 -0.0867578587
O  O1  1  0.01610000  0.18275000  0.38482000  0.5 -0.4298664309
O  O2  1  0.98390000  0.81725000  0.38482000  0.5 -0.4298664309
O  O3  1  0.18275000  0.98390000  0.38482000  0.5 -0.4298664309
O  O4  1  0.81725000  0.01610000  0.38482000  0.5 -0.4298664309
O  O5  1  0.01610000  0.81725000  0.61518000  0.5 -0.4298664309
O  O6  1  0.98390000  0.18275000  0.61518000  0.5 -0.4298664309
O  O7  1  0.18275000  0.01610000  0.61518000  0.5 -0.4298664309
O  O8  1  0.81725000  0.98390000  0.61518000  0.5 -0.4298664309
O  O9  1  0.98390000  0.81725000  0.61518000  0.5 -0.4298664309
O  O10  1  0.01610000  0.18275000  0.61518000  0.5 -0.4298664309
O  O11  1  0.81725000  0.01610000  0.61518000  0.5 -0.4298664309
O  O12  1  0.18275000  0.98390000  0.61518000  0.5 -0.4298664309
O  O13  1  0.98390000  0.18275000  0.38482000  0.5 -0.4298664309
O  O14  1  0.01610000  0.81725000  0.38482000  0.5 -0.4298664309
O  O15  1  0.81725000  0.98390000  0.38482000  0.5 -0.4298664309
O  O16  1  0.18275000  0.01610000  0.38482000  0.5 -0.4298664309
