# DDEC6 charges by PACMAN v1.1 (https://github.com/mtap-research/PACMAN-charge/)
data_c9tc00463g2_FSR_pacman
_symmetry_space_group_name_H-M   'P 1'
_cell_length_a   9.33900000
_cell_length_b   15.62170000
_cell_length_c   33.67090000
_cell_angle_alpha   90.00000000
_cell_angle_beta   90.00000000
_cell_angle_gamma   90.00000000
_symmetry_Int_Tables_number   1
_chemical_formula_structural   In3H40C70(ClO10)2
_chemical_formula_sum   'In6 H80 C140 Cl4 O40'
_cell_volume   4912.28316757
_cell_formula_units_Z   2
loop_
 _symmetry_equiv_pos_site_id
 _symmetry_equiv_pos_as_xyz
  1  'x, y, z'
loop_
 _atom_site_type_symbol
 _atom_site_label
 _atom_site_symmetry_multiplicity
 _atom_site_fract_x
 _atom_site_fract_y
 _atom_site_fract_z
 _atom_site_occupancy
 _atom_site_charge
In  In1  1  0.82616000  0.05412000  0.87938000  1.0 1.2953121917
In  In2  1  0.17384000  0.94588000  0.37938000  1.0 1.2953121917
In  In3  1  0.17384000  0.05412000  0.62062000  1.0 1.2953121917
In  In4  1  0.82616000  0.94588000  0.12062000  1.0 1.2953121917
In  In5  1  0.50000000  0.44407000  0.25000000  1.0 1.3220771805
In  In6  1  0.50000000  0.55593000  0.75000000  1.0 1.3220771805
H  H1  1  0.77452000  0.67340000  0.20994000  1.0 0.1220052739
H  H2  1  0.96305000  0.75453000  0.18667000  1.0 0.1406058129
H  H3  1  0.20179000  0.54446000  0.18146000  1.0 0.1304080908
H  H4  1  0.00568000  0.46093000  0.20131000  1.0 0.1304080908
H  H5  1  0.13037000  0.76791000  0.12371000  1.0 0.1304080908
H  H6  1  0.32306000  0.84927000  0.10467000  1.0 0.1406058129
H  H7  1  0.55435000  0.74930000  0.19293000  1.0 0.1304080908
H  H8  1  0.36639000  0.66298000  0.20947000  1.0 0.1406058129
H  H9  1  0.35993000  0.21985000  0.16433000  1.0 0.1304080908
H  H10  1  0.22819000  0.14792000  0.11155000  1.0 0.1220052739
H  H11  1  0.18956000  0.38649000  0.06382000  1.0 0.1220052739
H  H12  1  0.29611000  0.44636000  0.11976000  1.0 0.1304080908
H  H13  1  0.03724000  0.12909000  0.07264000  1.0 0.1406058129
H  H14  1  0.93050000  0.07273000  0.01723000  1.0 0.1406058129
H  H15  1  0.09397000  0.26037000  0.95165000  1.0 0.1304080908
H  H16  1  0.19382000  0.31793000  0.00717000  1.0 0.1220052739
H  H17  1  0.10820000  0.07842000  0.76854000  1.0 0.1304080908
H  H18  1  0.29752000  0.07062000  0.72635000  1.0 0.1406058129
H  H19  1  0.53382000  0.96506000  0.81139000  1.0 0.1304080908
H  H20  1  0.34251000  0.96492000  0.85249000  1.0 0.1304080908
H  H21  1  0.22548000  0.32660000  0.70994000  1.0 0.1220052739
H  H22  1  0.03695000  0.24547000  0.68667000  1.0 0.1406058129
H  H23  1  0.79821000  0.45554000  0.68146000  1.0 0.1304080908
H  H24  1  0.99432000  0.53907000  0.70131000  1.0 0.1304080908
H  H25  1  0.86963000  0.23209000  0.62371000  1.0 0.1304080908
H  H26  1  0.67694000  0.15073000  0.60467000  1.0 0.1406058129
H  H27  1  0.44565000  0.25070000  0.69293000  1.0 0.1304080908
H  H28  1  0.63361000  0.33702000  0.70947000  1.0 0.1406058129
H  H29  1  0.64007000  0.78015000  0.66433000  1.0 0.1304080908
H  H30  1  0.77181000  0.85208000  0.61155000  1.0 0.1220052739
H  H31  1  0.81044000  0.61351000  0.56382000  1.0 0.1220052739
H  H32  1  0.70389000  0.55364000  0.61976000  1.0 0.1304080908
H  H33  1  0.96276000  0.87091000  0.57264000  1.0 0.1406058129
H  H34  1  0.06950000  0.92727000  0.51723000  1.0 0.1406058129
H  H35  1  0.90603000  0.73963000  0.45165000  1.0 0.1304080908
H  H36  1  0.80618000  0.68207000  0.50717000  1.0 0.1220052739
H  H37  1  0.89180000  0.92158000  0.26854000  1.0 0.1304080908
H  H38  1  0.70248000  0.92938000  0.22635000  1.0 0.1406058129
H  H39  1  0.46618000  0.03494000  0.31139000  1.0 0.1304080908
H  H40  1  0.65749000  0.03508000  0.35249000  1.0 0.1304080908
H  H41  1  0.22548000  0.67340000  0.29006000  1.0 0.1220052739
H  H42  1  0.03695000  0.75453000  0.31333000  1.0 0.1406058129
H  H43  1  0.79821000  0.54446000  0.31854000  1.0 0.1304080908
H  H44  1  0.99432000  0.46093000  0.29869000  1.0 0.1304080908
H  H45  1  0.86963000  0.76791000  0.37629000  1.0 0.1304080908
H  H46  1  0.67694000  0.84927000  0.39533000  1.0 0.1406058129
H  H47  1  0.44565000  0.74930000  0.30707000  1.0 0.1304080908
H  H48  1  0.63361000  0.66298000  0.29053000  1.0 0.1406058129
H  H49  1  0.64007000  0.21985000  0.33567000  1.0 0.1304080908
H  H50  1  0.77181000  0.14792000  0.38845000  1.0 0.1220052739
H  H51  1  0.81044000  0.38649000  0.43618000  1.0 0.1220052739
H  H52  1  0.70389000  0.44636000  0.38024000  1.0 0.1304080908
H  H53  1  0.96276000  0.12909000  0.42736000  1.0 0.1406058129
H  H54  1  0.06950000  0.07273000  0.48277000  1.0 0.1406058129
H  H55  1  0.90603000  0.26037000  0.54835000  1.0 0.1304080908
H  H56  1  0.80618000  0.31793000  0.49283000  1.0 0.1220052739
H  H57  1  0.89180000  0.07842000  0.73146000  1.0 0.1304080908
H  H58  1  0.70248000  0.07062000  0.77365000  1.0 0.1406058129
H  H59  1  0.46618000  0.96506000  0.68861000  1.0 0.1304080908
H  H60  1  0.65749000  0.96492000  0.64751000  1.0 0.1304080908
H  H61  1  0.77452000  0.32660000  0.79006000  1.0 0.1220052739
H  H62  1  0.96305000  0.24547000  0.81333000  1.0 0.1406058129
H  H63  1  0.20179000  0.45554000  0.81854000  1.0 0.1304080908
H  H64  1  0.00568000  0.53907000  0.79869000  1.0 0.1304080908
H  H65  1  0.13037000  0.23209000  0.87629000  1.0 0.1304080908
H  H66  1  0.32306000  0.15073000  0.89533000  1.0 0.1406058129
H  H67  1  0.55435000  0.25070000  0.80707000  1.0 0.1304080908
H  H68  1  0.36639000  0.33702000  0.79053000  1.0 0.1406058129
H  H69  1  0.35993000  0.78015000  0.83567000  1.0 0.1304080908
H  H70  1  0.22819000  0.85208000  0.88845000  1.0 0.1220052739
H  H71  1  0.18956000  0.61351000  0.93618000  1.0 0.1220052739
H  H72  1  0.29611000  0.55364000  0.88024000  1.0 0.1304080908
H  H73  1  0.03724000  0.87091000  0.92736000  1.0 0.1406058129
H  H74  1  0.93050000  0.92727000  0.98277000  1.0 0.1406058129
H  H75  1  0.09397000  0.73963000  0.04835000  1.0 0.1304080908
H  H76  1  0.19382000  0.68207000  0.99283000  1.0 0.1220052739
H  H77  1  0.10820000  0.92158000  0.23146000  1.0 0.1304080908
H  H78  1  0.29752000  0.92938000  0.27365000  1.0 0.1406058129
H  H79  1  0.53382000  0.03494000  0.18861000  1.0 0.1304080908
H  H80  1  0.34251000  0.03508000  0.14751000  1.0 0.1304080908
C  C1  1  0.74790000  0.51040000  0.22150000  1.0 0.5421554775
C  C2  1  0.86740000  0.56050000  0.20630000  1.0 -0.0336252904
C  C3  1  0.85970000  0.64620000  0.20320000  1.0 -0.0736095291
C  C4  1  0.97440000  0.69580000  0.19010000  1.0 -0.1202205794
C  C5  1  0.10150000  0.65890000  0.18250000  1.0 0.08000585
C  C6  1  0.11430000  0.57060000  0.18670000  1.0 -0.1385497445
C  C7  1  0.99670000  0.51990000  0.19860000  1.0 -0.0827228694
C  C8  1  0.22680000  0.70820000  0.17030000  1.0 0.08000585
C  C9  1  0.21610000  0.76380000  0.13760000  1.0 -0.1300612732
C  C10  1  0.33190000  0.81230000  0.12620000  1.0 -0.0827228694
C  C11  1  0.46060000  0.80720000  0.14590000  1.0 -0.0090896289
C  C12  1  0.46990000  0.75220000  0.17830000  1.0 -0.0916490319
C  C13  1  0.35560000  0.70220000  0.18890000  1.0 -0.1202205794
C  C14  1  0.58840000  0.85840000  0.13350000  1.0 0.5421554775
C  C15  1  0.39730000  0.37540000  0.18510000  1.0 0.5421554775
C  C16  1  0.33460000  0.33620000  0.14760000  1.0 -4.14389e-05
C  C17  1  0.32000000  0.25310000  0.14430000  1.0 -0.0736095291
C  C18  1  0.24510000  0.20660000  0.11200000  1.0 -0.1202205794
C  C19  1  0.20280000  0.26560000  0.08130000  1.0 0.0852264048
C  C20  1  0.22080000  0.35110000  0.08430000  1.0 -0.1385497445
C  C21  1  0.28610000  0.38730000  0.11790000  1.0 -0.0916490319
C  C22  1  0.13030000  0.22790000  0.04570000  1.0 0.08000585
C  C23  1  0.04890000  0.15610000  0.04820000  1.0 -0.108995293
C  C24  1  0.98370000  0.12290000  0.01500000  1.0 -0.0736095291
C  C25  1  0.99540000  0.16240000  0.97860000  1.0 -0.0238268526
C  C26  1  0.07950000  0.23420000  0.97610000  1.0 -0.0916490319
C  C27  1  0.14190000  0.26730000  0.00920000  1.0 -0.1385497445
C  C28  1  0.92620000  0.12480000  0.94300000  1.0 0.5496545987
C  C29  1  0.07750000  0.02890000  0.84260000  1.0 0.5421554775
C  C30  1  0.20560000  0.02500000  0.81570000  1.0 -0.0090896289
C  C31  1  0.19410000  0.05490000  0.77730000  1.0 -0.0963602557
C  C32  1  0.30810000  0.05020000  0.75210000  1.0 -0.1300612732
C  C33  1  0.43790000  0.01670000  0.76320000  1.0 0.08000585
C  C34  1  0.44710000  0.98680000  0.80230000  1.0 -0.1202205794
C  C35  1  0.33400000  0.98850000  0.82720000  1.0 -0.0916490319
C  C36  1  0.25210000  0.48960000  0.72150000  1.0 0.5421554775
C  C37  1  0.13260000  0.43950000  0.70630000  1.0 -0.0336252904
C  C38  1  0.14030000  0.35380000  0.70320000  1.0 -0.0736095291
C  C39  1  0.02560000  0.30420000  0.69010000  1.0 -0.1202205794
C  C40  1  0.89850000  0.34110000  0.68250000  1.0 0.08000585
C  C41  1  0.88570000  0.42940000  0.68670000  1.0 -0.1385497445
C  C42  1  0.00330000  0.48010000  0.69860000  1.0 -0.0827228694
C  C43  1  0.77320000  0.29180000  0.67030000  1.0 0.08000585
C  C44  1  0.78390000  0.23620000  0.63760000  1.0 -0.1300612732
C  C45  1  0.66810000  0.18770000  0.62620000  1.0 -0.0827228694
C  C46  1  0.53940000  0.19280000  0.64590000  1.0 -0.0090896289
C  C47  1  0.53010000  0.24780000  0.67830000  1.0 -0.0916490319
C  C48  1  0.64440000  0.29780000  0.68890000  1.0 -0.1202205794
C  C49  1  0.41160000  0.14160000  0.63350000  1.0 0.5421554775
C  C50  1  0.60270000  0.62460000  0.68510000  1.0 0.5421554775
C  C51  1  0.66540000  0.66380000  0.64760000  1.0 -4.14389e-05
C  C52  1  0.68000000  0.74690000  0.64430000  1.0 -0.0736095291
C  C53  1  0.75490000  0.79340000  0.61200000  1.0 -0.1202205794
C  C54  1  0.79720000  0.73440000  0.58130000  1.0 0.0852264048
C  C55  1  0.77920000  0.64890000  0.58430000  1.0 -0.1385497445
C  C56  1  0.71390000  0.61270000  0.61790000  1.0 -0.0916490319
C  C57  1  0.86970000  0.77210000  0.54570000  1.0 0.08000585
C  C58  1  0.95110000  0.84390000  0.54820000  1.0 -0.108995293
C  C59  1  0.01630000  0.87710000  0.51500000  1.0 -0.0736095291
C  C60  1  0.00460000  0.83760000  0.47860000  1.0 -0.0238268526
C  C61  1  0.92050000  0.76580000  0.47610000  1.0 -0.0916490319
C  C62  1  0.85810000  0.73270000  0.50920000  1.0 -0.1385497445
C  C63  1  0.07380000  0.87520000  0.44300000  1.0 0.5496545987
C  C64  1  0.92250000  0.97110000  0.34260000  1.0 0.5421554775
C  C65  1  0.79440000  0.97500000  0.31570000  1.0 -0.0090896289
C  C66  1  0.80590000  0.94510000  0.27730000  1.0 -0.0963602557
C  C67  1  0.69190000  0.94980000  0.25210000  1.0 -0.1300612732
C  C68  1  0.56210000  0.98330000  0.26320000  1.0 0.08000585
C  C69  1  0.55290000  0.01320000  0.30230000  1.0 -0.1202205794
C  C70  1  0.66600000  0.01150000  0.32720000  1.0 -0.0916490319
C  C71  1  0.25210000  0.51040000  0.27850000  1.0 0.5421554775
C  C72  1  0.13260000  0.56050000  0.29370000  1.0 -0.0336252904
C  C73  1  0.14030000  0.64620000  0.29680000  1.0 -0.0736095291
C  C74  1  0.02560000  0.69580000  0.30990000  1.0 -0.1202205794
C  C75  1  0.89850000  0.65890000  0.31750000  1.0 0.08000585
C  C76  1  0.88570000  0.57060000  0.31330000  1.0 -0.1385497445
C  C77  1  0.00330000  0.51990000  0.30140000  1.0 -0.0827228694
C  C78  1  0.77320000  0.70820000  0.32970000  1.0 0.08000585
C  C79  1  0.78390000  0.76380000  0.36240000  1.0 -0.1300612732
C  C80  1  0.66810000  0.81230000  0.37380000  1.0 -0.0827228694
C  C81  1  0.53940000  0.80720000  0.35410000  1.0 -0.0090896289
C  C82  1  0.53010000  0.75220000  0.32170000  1.0 -0.0916490319
C  C83  1  0.64440000  0.70220000  0.31110000  1.0 -0.1202205794
C  C84  1  0.41160000  0.85840000  0.36650000  1.0 0.5421554775
C  C85  1  0.60270000  0.37540000  0.31490000  1.0 0.5421554775
C  C86  1  0.66540000  0.33620000  0.35240000  1.0 -4.14389e-05
C  C87  1  0.68000000  0.25310000  0.35570000  1.0 -0.0736095291
C  C88  1  0.75490000  0.20660000  0.38800000  1.0 -0.1202205794
C  C89  1  0.79720000  0.26560000  0.41870000  1.0 0.0852264048
C  C90  1  0.77920000  0.35110000  0.41570000  1.0 -0.1385497445
C  C91  1  0.71390000  0.38730000  0.38210000  1.0 -0.0916490319
C  C92  1  0.86970000  0.22790000  0.45430000  1.0 0.08000585
C  C93  1  0.95110000  0.15610000  0.45180000  1.0 -0.108995293
C  C94  1  0.01630000  0.12290000  0.48500000  1.0 -0.0736095291
C  C95  1  0.00460000  0.16240000  0.52140000  1.0 -0.0238268526
C  C96  1  0.92050000  0.23420000  0.52390000  1.0 -0.0916490319
C  C97  1  0.85810000  0.26730000  0.49080000  1.0 -0.1385497445
C  C98  1  0.07380000  0.12480000  0.55700000  1.0 0.5496545987
C  C99  1  0.92250000  0.02890000  0.65740000  1.0 0.5421554775
C  C100  1  0.79440000  0.02500000  0.68430000  1.0 -0.0090896289
C  C101  1  0.80590000  0.05490000  0.72270000  1.0 -0.0963602557
C  C102  1  0.69190000  0.05020000  0.74790000  1.0 -0.1300612732
C  C103  1  0.56210000  0.01670000  0.73680000  1.0 0.08000585
C  C104  1  0.55290000  0.98680000  0.69770000  1.0 -0.1202205794
C  C105  1  0.66600000  0.98850000  0.67280000  1.0 -0.0916490319
C  C106  1  0.74790000  0.48960000  0.77850000  1.0 0.5421554775
C  C107  1  0.86740000  0.43950000  0.79370000  1.0 -0.0336252904
C  C108  1  0.85970000  0.35380000  0.79680000  1.0 -0.0736095291
C  C109  1  0.97440000  0.30420000  0.80990000  1.0 -0.1202205794
C  C110  1  0.10150000  0.34110000  0.81750000  1.0 0.08000585
C  C111  1  0.11430000  0.42940000  0.81330000  1.0 -0.1385497445
C  C112  1  0.99670000  0.48010000  0.80140000  1.0 -0.0827228694
C  C113  1  0.22680000  0.29180000  0.82970000  1.0 0.08000585
C  C114  1  0.21610000  0.23620000  0.86240000  1.0 -0.1300612732
C  C115  1  0.33190000  0.18770000  0.87380000  1.0 -0.0827228694
C  C116  1  0.46060000  0.19280000  0.85410000  1.0 -0.0090896289
C  C117  1  0.46990000  0.24780000  0.82170000  1.0 -0.0916490319
C  C118  1  0.35560000  0.29780000  0.81110000  1.0 -0.1202205794
C  C119  1  0.58840000  0.14160000  0.86650000  1.0 0.5421554775
C  C120  1  0.39730000  0.62460000  0.81490000  1.0 0.5421554775
C  C121  1  0.33460000  0.66380000  0.85240000  1.0 -4.14389e-05
C  C122  1  0.32000000  0.74690000  0.85570000  1.0 -0.0736095291
C  C123  1  0.24510000  0.79340000  0.88800000  1.0 -0.1202205794
C  C124  1  0.20280000  0.73440000  0.91870000  1.0 0.0852264048
C  C125  1  0.22080000  0.64890000  0.91570000  1.0 -0.1385497445
C  C126  1  0.28610000  0.61270000  0.88210000  1.0 -0.0916490319
C  C127  1  0.13030000  0.77210000  0.95430000  1.0 0.08000585
C  C128  1  0.04890000  0.84390000  0.95180000  1.0 -0.108995293
C  C129  1  0.98370000  0.87710000  0.98500000  1.0 -0.0736095291
C  C130  1  0.99540000  0.83760000  0.02140000  1.0 -0.0238268526
C  C131  1  0.07950000  0.76580000  0.02390000  1.0 -0.0916490319
C  C132  1  0.14190000  0.73270000  0.99080000  1.0 -0.1385497445
C  C133  1  0.92620000  0.87520000  0.05700000  1.0 0.5496545987
C  C134  1  0.07750000  0.97110000  0.15740000  1.0 0.5421554775
C  C135  1  0.20560000  0.97500000  0.18430000  1.0 -0.0090896289
C  C136  1  0.19410000  0.94510000  0.22270000  1.0 -0.0963602557
C  C137  1  0.30810000  0.94980000  0.24790000  1.0 -0.1300612732
C  C138  1  0.43790000  0.98330000  0.23680000  1.0 0.08000585
C  C139  1  0.44710000  0.01320000  0.19770000  1.0 -0.1202205794
C  C140  1  0.33400000  0.01150000  0.17280000  1.0 -0.0916490319
Cl  Cl1  1  0.73570000  0.91230000  0.87412000  1.0 -0.5111034929
Cl  Cl2  1  0.26430000  0.08770000  0.37412000  1.0 -0.5111034929
Cl  Cl3  1  0.26430000  0.91230000  0.62588000  1.0 -0.5111034929
Cl  Cl4  1  0.73570000  0.08770000  0.12588000  1.0 -0.5111034929
O  O1  1  0.63460000  0.55120000  0.23310000  1.0 -0.5219403251
O  O2  1  0.74200000  0.43250000  0.22290000  1.0 -0.4658556922
O  O3  1  0.58860000  0.89690000  0.10110000  1.0 -0.5111034929
O  O4  1  0.69340000  0.86240000  0.15690000  1.0 -0.5305156751
O  O5  1  0.41560000  0.45170000  0.18610000  1.0 -0.4790982387
O  O6  1  0.43330000  0.32840000  0.21280000  1.0 -0.4547839506
O  O7  1  0.92760000  0.16550000  0.91111000  1.0 -0.5111034929
O  O8  1  0.86790000  0.05320000  0.94457000  1.0 -0.4790982387
O  O9  1  0.08660000  0.00350000  0.87820000  1.0 -0.549354945
O  O10  1  0.96500000  0.06080000  0.82860000  1.0 -0.5111034929
O  O11  1  0.36540000  0.44880000  0.73310000  1.0 -0.5219403251
O  O12  1  0.25800000  0.56750000  0.72290000  1.0 -0.4658556922
O  O13  1  0.41140000  0.10310000  0.60110000  1.0 -0.5111034929
O  O14  1  0.30660000  0.13760000  0.65690000  1.0 -0.5305156751
O  O15  1  0.58440000  0.54830000  0.68610000  1.0 -0.4790982387
O  O16  1  0.56670000  0.67160000  0.71280000  1.0 -0.4547839506
O  O17  1  0.07240000  0.83450000  0.41111000  1.0 -0.5111034929
O  O18  1  0.13210000  0.94680000  0.44457000  1.0 -0.4790982387
O  O19  1  0.91340000  0.99650000  0.37820000  1.0 -0.549354945
O  O20  1  0.03500000  0.93920000  0.32860000  1.0 -0.5111034929
O  O21  1  0.36540000  0.55120000  0.26690000  1.0 -0.5219403251
O  O22  1  0.25800000  0.43250000  0.27710000  1.0 -0.4658556922
O  O23  1  0.41140000  0.89690000  0.39890000  1.0 -0.5111034929
O  O24  1  0.30660000  0.86240000  0.34310000  1.0 -0.5305156751
O  O25  1  0.58440000  0.45170000  0.31390000  1.0 -0.4790982387
O  O26  1  0.56670000  0.32840000  0.28720000  1.0 -0.4547839506
O  O27  1  0.07240000  0.16550000  0.58889000  1.0 -0.5111034929
O  O28  1  0.13210000  0.05320000  0.55543000  1.0 -0.4790982387
O  O29  1  0.91340000  0.00350000  0.62180000  1.0 -0.549354945
O  O30  1  0.03500000  0.06080000  0.67140000  1.0 -0.5111034929
O  O31  1  0.63460000  0.44880000  0.76690000  1.0 -0.5219403251
O  O32  1  0.74200000  0.56750000  0.77710000  1.0 -0.4658556922
O  O33  1  0.58860000  0.10310000  0.89890000  1.0 -0.5111034929
O  O34  1  0.69340000  0.13760000  0.84310000  1.0 -0.5305156751
O  O35  1  0.41560000  0.54830000  0.81390000  1.0 -0.4790982387
O  O36  1  0.43330000  0.67160000  0.78720000  1.0 -0.4547839506
O  O37  1  0.92760000  0.83450000  0.08889000  1.0 -0.5111034929
O  O38  1  0.86790000  0.94680000  0.05543000  1.0 -0.4790982387
O  O39  1  0.08660000  0.99650000  0.12180000  1.0 -0.549354945
O  O40  1  0.96500000  0.93920000  0.17140000  1.0 -0.5111034929
